/*---------------------------------------------------------------------------*\
| =========                 |                                                 |
| \\      /  F ield         | OpenFOAM: The Open Source CFD Toolbox           |
|  \\    /   O peration     | Version:  2012                                  |
|   \\  /    A nd           | Website:  www.openfoam.com                      |
|    \\/     M anipulation  |                                                 |
\*---------------------------------------------------------------------------*/
Build  : _e91649cfd8-20210420 OPENFOAM=2012 patch=210414
Arch   : "LSB;label=32;scalar=64"
Exec   : pimpleFoam
Date   : May 28 2021
Time   : 10:02:17
Host   : scw-a5ymyf
PID    : 11876
I/O    : uncollated
Case   : /home/julian/software/mbdyn-adapter/oneBladeRotor_simplified_parallel/fluid
nProcs : 1
trapFpe: Floating point exception trapping enabled (FOAM_SIGFPE).
fileModificationChecking : Monitoring run-time modified files using timeStampMaster (fileModificationSkew 5, maxFileModificationPolls 20)
allowSystemOperations : Allowing user-supplied system call operations

// * * * * * * * * * * * * * * * * * * * * * * * * * * * * * * * * * * * * * //
Create time

Create mesh for time = 0

Selecting dynamicFvMesh dynamicMotionSolverFvMesh
Selecting motion solver: displacementLaplacian
Applying solid body motion to entire mesh
Selecting motion diffusion: uniform

PIMPLE: max iterations = 30
    field "(U|k|epsilon|omega)"	: relTol 0, tolerance 0.01
    field p	: relTol 0, tolerance 0.01

Reading field p

Reading field U

Reading/calculating face flux field phi

Selecting incompressible transport model Newtonian
Selecting turbulence model type RAS
Selecting RAS turbulence model kOmegaSST
Selecting patchDistMethod meshWave
RAS
{
    RASModel        kOmegaSST;
    turbulence      on;
    printCoeffs     on;
    alphaK1         0.85;
    alphaK2         1;
    alphaOmega1     0.5;
    alphaOmega2     0.856;
    gamma1          0.5555555555555556;
    gamma2          0.44;
    beta1           0.075;
    beta2           0.0828;
    betaStar        0.09;
    a1              0.31;
    b1              1;
    c1              10;
    F3              false;
    decayControl    false;
    kInf            0;
    omegaInf        0;
}

No MRF models present

No finite volume options present
Constructing face velocity Uf

Courant Number mean: 0 max: 0

Starting time loop

---[preciceAdapter] The preciceAdapter was loaded.
---[preciceAdapter] Reading preciceDict...
---[precice] [0m This is preCICE version 2.2.0
---[precice] [0m Revision info: v2.2.0
---[precice] [0m Configuration: Release (Debug and Trace log unavailable)
---[precice] [0m Configuring preCICE with configuration "../precice-config.xml"
---[precice] [0m I am participant "Fluid"
---[precice] [0m Setting up master communication to coupling partner/s
---[precice] [0m Masters are connected
---[precice] [0m Setting up preliminary slaves communication to coupling partner/s
---[precice] [0m Prepare partition for mesh Fluid-Mesh
---[precice] [0m Receive global mesh Solid-Mesh
---[precice] [0m Setting up slaves communication to coupling partner/s
---[precice] [0m Slaves are connected
---[precice] [0m iteration: 1, time-window: 1, time: 0 of 10, time-window-size: 0.01, max-timestep-length: 0.01, ongoing: yes, time-window-complete: no, 
---[precice] [0m Compute write mapping from mesh "Fluid-Mesh" to mesh "Solid-Mesh".
---[precice] [0m Mapping distance min:0.171607 max:0.196076 avg: 0.182616 var: 4.83128e-05 cnt: 80
---[precice] [0m initializeData is skipped since no data has to be initialized.
---[preciceAdapter] preCICE was configured and initialized
--> FOAM Warning : 
    From void adapterInfo(std::string, std::string)
    in file Utilities.C at line 17
    [36mWarning in the preCICE adapter: [0m
You have enabled 'runTimeModifiable' in the controlDict. The preciceAdapter does not yet fully support this functionality when 'adjustableTimestep' is not enabled. If you modify the 'deltaT' in the controlDict during the simulation, it will not be updated.

---[preciceAdapter] Setting the solver's endTime to infinity to prevent early exits. Only preCICE will control the simulation's endTime. Any functionObject's end() method will be triggered by the adapter. You may disable this behavior in the adapter's configuration.
Courant Number mean: 0 max: 0
Time = 0.01

PIMPLE: iteration 1
DICPCG:  Solving for cellDisplacementx, Initial residual = 0, Final residual = 0, No Iterations 0
DICPCG:  Solving for cellDisplacementy, Initial residual = 0, Final residual = 0, No Iterations 0
DICPCG:  Solving for pcorr, Initial residual = 2.252922644611768e-12, Final residual = 1.881868018464973e-12, No Iterations 1
DICPCG:  Solving for pcorr, Initial residual = 1.881868018457057e-12, Final residual = 2.12411617348157e-12, No Iterations 1
time step continuity errors : sum local = 3.769061107353189e-37, global = -4.684452769628861e-38, cumulative = -4.684452769628861e-38
DILUPBiCGStab:  Solving for Ux, Initial residual = 0.9991616405609788, Final residual = 1.538568520676566e-07, No Iterations 3
DILUPBiCGStab:  Solving for Uy, Initial residual = 0.9953041831411008, Final residual = 1.711860148275323e-07, No Iterations 3
DICPBiCGStab:  Solving for p, Initial residual = 0.9983934361323845, Final residual = 0.009431861419766574, No Iterations 3
DICPBiCGStab:  Solving for p, Initial residual = 0.03767424618579268, Final residual = 0.004368658691121761, No Iterations 1
time step continuity errors : sum local = 9.666209510410953e-25, global = -4.728820567295535e-38, cumulative = -9.413273336924396e-38
DICPBiCGStab:  Solving for p, Initial residual = 0.1269188775316629, Final residual = 0.008294011377788093, No Iterations 1
DICPBiCGStab:  Solving for p, Initial residual = 0.01352349689486802, Final residual = 0.003320320823968897, No Iterations 1
time step continuity errors : sum local = 6.951597072844316e-25, global = -8.814455931383492e-38, cumulative = -1.822772926830789e-37
DILUPBiCGStab:  Solving for omega, Initial residual = 1.03366764179064e-05, Final residual = 9.33546726050078e-10, No Iterations 1
DILUPBiCGStab:  Solving for k, Initial residual = 0.9999999999982599, Final residual = 4.90114016483338e-07, No Iterations 1
PIMPLE: iteration 2
DILUPBiCGStab:  Solving for Ux, Initial residual = 0.005132061420593645, Final residual = 4.780892617966993e-07, No Iterations 1
DILUPBiCGStab:  Solving for Uy, Initial residual = 0.0005324116810618354, Final residual = 1.207102400668282e-07, No Iterations 1
DICPBiCGStab:  Solving for p, Initial residual = 0.7981794466708919, Final residual = 0.008597068609560034, No Iterations 2
DICPBiCGStab:  Solving for p, Initial residual = 0.2309941264967245, Final residual = 0.007969270344361953, No Iterations 3
time step continuity errors : sum local = 6.747869263157024e-25, global = -9.836063652211743e-35, cumulative = -9.854291381480051e-35
DICPBiCGStab:  Solving for p, Initial residual = 0.4736235091116326, Final residual = 0.009864948511210812, No Iterations 2
DICPBiCGStab:  Solving for p, Initial residual = 0.05448347545119479, Final residual = 0.004151497826381586, No Iterations 6
time step continuity errors : sum local = 2.921187983047696e-25, global = -4.966299042522202e-31, cumulative = -4.96728447166035e-31
DILUPBiCGStab:  Solving for omega, Initial residual = 1.86546201443254e-06, Final residual = 1.356546752505568e-12, No Iterations 1
DILUPBiCGStab:  Solving for k, Initial residual = 0.0169064635655792, Final residual = 2.807948374309795e-11, No Iterations 1
PIMPLE: iteration 3
DILUPBiCGStab:  Solving for Ux, Initial residual = 0.001151348656422679, Final residual = 1.274438398418243e-07, No Iterations 1
DILUPBiCGStab:  Solving for Uy, Initial residual = 5.723296059573059e-05, Final residual = 1.414874453307912e-08, No Iterations 1
DICPBiCGStab:  Solving for p, Initial residual = 0.7345094034205903, Final residual = 0.008320952048538518, No Iterations 2
DICPBiCGStab:  Solving for p, Initial residual = 0.09001010066915884, Final residual = 0.008573549917947393, No Iterations 2
time step continuity errors : sum local = 3.995588417565822e-25, global = -2.040385866285485e-30, cumulative = -2.53711431345152e-30
DICPBiCGStab:  Solving for p, Initial residual = 0.3261479544120117, Final residual = 0.009387796971739732, No Iterations 2
DICPBiCGStab:  Solving for p, Initial residual = 0.01743141450479061, Final residual = 0.004934416466331699, No Iterations 3
time step continuity errors : sum local = 2.139687556180221e-25, global = -1.153548491660902e-29, cumulative = -1.407259923006054e-29
DILUPBiCGStab:  Solving for omega, Initial residual = 1.017586460411351e-06, Final residual = 1.291856277964003e-12, No Iterations 1
DILUPBiCGStab:  Solving for k, Initial residual = 0.003771970108011497, Final residual = 8.600424887522377e-12, No Iterations 1
PIMPLE: iteration 4
DILUPBiCGStab:  Solving for Ux, Initial residual = 6.904493510537383e-05, Final residual = 2.038208816625721e-08, No Iterations 1
DILUPBiCGStab:  Solving for Uy, Initial residual = 5.506498620860204e-05, Final residual = 1.836863823517693e-08, No Iterations 1
DICPBiCGStab:  Solving for p, Initial residual = 0.3525443424357935, Final residual = 0.008415597096405493, No Iterations 2
DICPBiCGStab:  Solving for p, Initial residual = 0.01649506252462508, Final residual = 0.007233846422004141, No Iterations 1
time step continuity errors : sum local = 2.60386240842539e-25, global = -1.751999490794151e-29, cumulative = -3.159259413800205e-29
DICPBiCGStab:  Solving for p, Initial residual = 0.09204847238273904, Final residual = 0.008125507027655248, No Iterations 1
DICPBiCGStab:  Solving for p, Initial residual = 0.008937550709010502, Final residual = 0.004864022010069584, No Iterations 2
time step continuity errors : sum local = 1.745488304850004e-25, global = -2.757726512337365e-29, cumulative = -5.916985926137571e-29
DILUPBiCGStab:  Solving for omega, Initial residual = 5.302998019841941e-07, Final residual = 1.205939066548549e-12, No Iterations 1
DILUPBiCGStab:  Solving for k, Initial residual = 0.001524667062599553, Final residual = 6.715172289628243e-12, No Iterations 1
PIMPLE: iteration 5
DILUPBiCGStab:  Solving for Ux, Initial residual = 3.598213144709861e-05, Final residual = 3.969746025269699e-10, No Iterations 2
DILUPBiCGStab:  Solving for Uy, Initial residual = 3.902877420640848e-05, Final residual = 4.16037036088609e-10, No Iterations 2
DICPBiCGStab:  Solving for p, Initial residual = 0.1563067696579889, Final residual = 0.009374224626844844, No Iterations 1
DICPBiCGStab:  Solving for p, Initial residual = 0.01210263690398655, Final residual = 0.004794083683207957, No Iterations 1
time step continuity errors : sum local = 2.064028176260684e-25, global = -3.560296733420542e-29, cumulative = -9.477282659558112e-29
DICPBiCGStab:  Solving for p, Initial residual = 0.01683300517003829, Final residual = 0.004158559792227616, No Iterations 1
DICPBiCGStab:  Solving for p, Initial residual = 0.004291599072283378, Final residual = 0.003029774884873112, No Iterations 1
time step continuity errors : sum local = 1.296116640790203e-25, global = -4.055779861726279e-29, cumulative = -1.353306252128439e-28
DILUPBiCGStab:  Solving for omega, Initial residual = 5.299798139448241e-07, Final residual = 4.952101429635173e-11, No Iterations 1
DILUPBiCGStab:  Solving for k, Initial residual = 0.00141329213178853, Final residual = 4.462290279355633e-10, No Iterations 1
PIMPLE: converged in 5 iterations
ExecutionTime = 0.19 s  ClockTime = 2 s

---[precice] [0m Time window completed
---[precice] [0m Compute read mapping from mesh "Solid-Mesh" to mesh "Fluid-Mesh".
---[precice] [0m Mapping distance min:0.171607 max:0.196076 avg: 0.182616 var: 4.83128e-05 cnt: 80
---[precice] [0m iteration: 1, time-window: 2, time: 0.01 of 10, time-window-size: 0.01, max-timestep-length: 0.01, ongoing: yes, time-window-complete: yes, 
Courant Number mean: 4.692574656781828e-23 max: 1.57528342219643e-16
Time = 0.02

PIMPLE: iteration 1
DICPCG:  Solving for cellDisplacementx, Initial residual = 0, Final residual = 0, No Iterations 0
DICPCG:  Solving for cellDisplacementy, Initial residual = 0, Final residual = 0, No Iterations 0
DICPCG:  Solving for pcorr, Initial residual = 0.422114963184095, Final residual = 0.8014104052798495, No Iterations 1
DICPCG:  Solving for pcorr, Initial residual = 0.4473228636993061, Final residual = 0.2413077001436804, No Iterations 1
time step continuity errors : sum local = 1.327450956018111e-25, global = -5.277529193214014e-29, cumulative = -1.88105917144984e-28
DILUPBiCGStab:  Solving for Ux, Initial residual = 0.0001230525103540783, Final residual = 3.326187737309668e-08, No Iterations 1
DILUPBiCGStab:  Solving for Uy, Initial residual = 0.0001474405080153056, Final residual = 2.98849393534e-08, No Iterations 1
DICPBiCGStab:  Solving for p, Initial residual = 0.2531282851043318, Final residual = 0.008831115475238054, No Iterations 3
DICPBiCGStab:  Solving for p, Initial residual = 0.01486432042812074, Final residual = 0.006531379494949631, No Iterations 1
time step continuity errors : sum local = 2.69066784298753e-25, global = -7.642991446509049e-29, cumulative = -2.645358316100745e-28
DICPBiCGStab:  Solving for p, Initial residual = 0.05523084762680435, Final residual = 0.007135524444558485, No Iterations 1
DICPBiCGStab:  Solving for p, Initial residual = 0.008041550082064758, Final residual = 0.004805281193953626, No Iterations 2
time step continuity errors : sum local = 2.008846737762724e-25, global = -7.724666219262301e-29, cumulative = -3.417824938026976e-28
DILUPBiCGStab:  Solving for omega, Initial residual = 1.131767256667601e-06, Final residual = 5.911390188387892e-12, No Iterations 1
DILUPBiCGStab:  Solving for k, Initial residual = 0.01094106009027056, Final residual = 1.135288491028068e-10, No Iterations 1
PIMPLE: iteration 2
DILUPBiCGStab:  Solving for Ux, Initial residual = 3.474997219624726e-05, Final residual = 1.33149731453168e-08, No Iterations 1
DILUPBiCGStab:  Solving for Uy, Initial residual = 3.98746498062951e-05, Final residual = 1.315177553775284e-08, No Iterations 1
DICPBiCGStab:  Solving for p, Initial residual = 0.05827119006971441, Final residual = 0.007968088124338212, No Iterations 1
DICPBiCGStab:  Solving for p, Initial residual = 0.008017959907924184, Final residual = 0.005138869017715969, No Iterations 1
time step continuity errors : sum local = 2.345015404936836e-25, global = -8.381614537863065e-29, cumulative = -4.255986391813282e-28
DICPBiCGStab:  Solving for p, Initial residual = 0.01431405133483042, Final residual = 0.004460386773325965, No Iterations 1
DICPBiCGStab:  Solving for p, Initial residual = 0.004486361180877756, Final residual = 0.003410147243015277, No Iterations 1
time step continuity errors : sum local = 1.556571618044929e-25, global = -7.756071900831236e-29, cumulative = -5.031593581896405e-28
DILUPBiCGStab:  Solving for omega, Initial residual = 5.443345246620414e-07, Final residual = 1.17112732032978e-12, No Iterations 1
DILUPBiCGStab:  Solving for k, Initial residual = 0.003949482153332506, Final residual = 2.679827638181667e-11, No Iterations 1
PIMPLE: iteration 3
DILUPBiCGStab:  Solving for Ux, Initial residual = 2.034069885794508e-05, Final residual = 2.661893542993029e-10, No Iterations 2
DILUPBiCGStab:  Solving for Uy, Initial residual = 2.326403412486104e-05, Final residual = 2.937311537152984e-10, No Iterations 2
DICPBiCGStab:  Solving for p, Initial residual = 0.1559428381800252, Final residual = 0.006888447498496678, No Iterations 2
DICPBiCGStab:  Solving for p, Initial residual = 0.01190271635095165, Final residual = 0.005907472963992138, No Iterations 1
time step continuity errors : sum local = 2.965968086267195e-25, global = -7.356823815069799e-29, cumulative = -5.767275963403385e-28
DICPBiCGStab:  Solving for p, Initial residual = 0.01398980274784267, Final residual = 0.004818210797871844, No Iterations 1
DICPBiCGStab:  Solving for p, Initial residual = 0.004927254736390977, Final residual = 0.003736916337092334, No Iterations 1
time step continuity errors : sum local = 1.849722126587939e-25, global = -5.846566821520448e-29, cumulative = -6.35193264555543e-28
DILUPBiCGStab:  Solving for omega, Initial residual = 5.325780192897165e-07, Final residual = 2.315751667469938e-11, No Iterations 1
DILUPBiCGStab:  Solving for k, Initial residual = 0.003447025440369473, Final residual = 7.72069207437647e-10, No Iterations 1
PIMPLE: converged in 3 iterations
ExecutionTime = 0.24 s  ClockTime = 2 s

---[precice] [0m Time window completed
---[precice] [0m iteration: 1, time-window: 3, time: 0.02 of 10, time-window-size: 0.01, max-timestep-length: 0.01, ongoing: yes, time-window-complete: yes, 
Courant Number mean: 9.123971681660849e-23 max: 2.906795788230373e-16
Time = 0.03

PIMPLE: iteration 1
DICPCG:  Solving for cellDisplacementx, Initial residual = 1, Final residual = 8.156713880821792e-07, No Iterations 83
DICPCG:  Solving for cellDisplacementy, Initial residual = 0.999999999999994, Final residual = 8.156565650434132e-07, No Iterations 83
DICPCG:  Solving for pcorr, Initial residual = 1, Final residual = 1.43770064181739, No Iterations 1
DICPCG:  Solving for pcorr, Initial residual = 0.4356463994839713, Final residual = 0.5723286951581056, No Iterations 5
time step continuity errors : sum local = 1.871280180741997e-08, global = -5.302531165204927e-11, cumulative = -5.302531165204927e-11
DILUPBiCGStab:  Solving for Ux, Initial residual = 0.999999996175284, Final residual = 7.070207012940883e-07, No Iterations 2
DILUPBiCGStab:  Solving for Uy, Initial residual = 0.9999998819466773, Final residual = 8.83963743747425e-07, No Iterations 2
DICPBiCGStab:  Solving for p, Initial residual = 0.9999999999999976, Final residual = 0.01388536188154694, No Iterations 25
DICPBiCGStab:  Solving for p, Initial residual = 0.5043677017017284, Final residual = 0.00833085607615033, No Iterations 4
time step continuity errors : sum local = 3.046889313463637e-10, global = -5.321254018537497e-11, cumulative = -1.062378518374242e-10
DICPBiCGStab:  Solving for p, Initial residual = 0.1423268787226625, Final residual = 0.009988823233283872, No Iterations 5
DICPBiCGStab:  Solving for p, Initial residual = 0.03529390380842246, Final residual = 0.004679730417167217, No Iterations 5
time step continuity errors : sum local = 2.294473482026163e-10, global = -5.155144085176856e-11, cumulative = -1.577892926891928e-10
DILUPBiCGStab:  Solving for omega, Initial residual = 1.283725775612455e-06, Final residual = 3.202203211343803e-12, No Iterations 1
DILUPBiCGStab:  Solving for k, Initial residual = 0.006062029833477164, Final residual = 6.989298138464611e-11, No Iterations 1
PIMPLE: iteration 2
DILUPBiCGStab:  Solving for Ux, Initial residual = 0.0002221013305985877, Final residual = 2.823682318903227e-09, No Iterations 1
DILUPBiCGStab:  Solving for Uy, Initial residual = 0.0004218434574159986, Final residual = 5.501339473820431e-09, No Iterations 1
DICPBiCGStab:  Solving for p, Initial residual = 0.2037034186674373, Final residual = 0.00945990088779885, No Iterations 13
DICPBiCGStab:  Solving for p, Initial residual = 0.1153443584958386, Final residual = 0.009984511519236293, No Iterations 3
time step continuity errors : sum local = 4.53709994111468e-10, global = -4.876220412836013e-11, cumulative = -2.065514968175529e-10
DICPBiCGStab:  Solving for p, Initial residual = 0.04607111736190946, Final residual = 0.009938311136726016, No Iterations 4
DICPBiCGStab:  Solving for p, Initial residual = 0.0197938903737037, Final residual = 0.004699762751258929, No Iterations 4
time step continuity errors : sum local = 1.96462233118708e-10, global = -4.635955440056269e-11, cumulative = -2.529110512181156e-10
DILUPBiCGStab:  Solving for omega, Initial residual = 5.85198161838191e-07, Final residual = 1.436898971329561e-14, No Iterations 1
DILUPBiCGStab:  Solving for k, Initial residual = 0.002685541339601337, Final residual = 1.137861625473195e-12, No Iterations 1
PIMPLE: iteration 3
DILUPBiCGStab:  Solving for Ux, Initial residual = 4.782796930984409e-05, Final residual = 1.787732025814601e-10, No Iterations 1
DILUPBiCGStab:  Solving for Uy, Initial residual = 8.781565432991027e-05, Final residual = 4.528655056353278e-10, No Iterations 1
DICPBiCGStab:  Solving for p, Initial residual = 0.07396541738716964, Final residual = 0.009973062307591157, No Iterations 9
DICPBiCGStab:  Solving for p, Initial residual = 0.05792653243830348, Final residual = 0.008832381254638545, No Iterations 3
time step continuity errors : sum local = 3.622392180384318e-10, global = -4.237759351401679e-11, cumulative = -2.952886447321324e-10
DICPBiCGStab:  Solving for p, Initial residual = 0.02344571800924744, Final residual = 0.009806599557738308, No Iterations 2
DICPBiCGStab:  Solving for p, Initial residual = 0.01459935404918156, Final residual = 0.004580818103944621, No Iterations 4
time step continuity errors : sum local = 1.809351448044942e-10, global = -4.034575379891878e-11, cumulative = -3.356343985310512e-10
DILUPBiCGStab:  Solving for omega, Initial residual = 2.780232371679501e-07, Final residual = 1.01840330424862e-14, No Iterations 1
DILUPBiCGStab:  Solving for k, Initial residual = 0.00125677855484419, Final residual = 3.762481708373135e-13, No Iterations 1
PIMPLE: iteration 4
DILUPBiCGStab:  Solving for Ux, Initial residual = 1.320592423791715e-05, Final residual = 3.502392319120073e-11, No Iterations 1
DILUPBiCGStab:  Solving for Uy, Initial residual = 2.109447141052232e-05, Final residual = 4.347684321826399e-11, No Iterations 1
DICPBiCGStab:  Solving for p, Initial residual = 0.02306587594764604, Final residual = 0.006867938337644494, No Iterations 1
DICPBiCGStab:  Solving for p, Initial residual = 0.01042922351931344, Final residual = 0.006545997847026641, No Iterations 1
time step continuity errors : sum local = 2.581171426414945e-10, global = -3.95292463575895e-11, cumulative = -3.751636448886407e-10
DICPBiCGStab:  Solving for p, Initial residual = 0.01012286718596681, Final residual = 0.00633633910565485, No Iterations 1
DICPBiCGStab:  Solving for p, Initial residual = 0.007867959077519505, Final residual = 0.00479617234669208, No Iterations 2
time step continuity errors : sum local = 1.888477423275599e-10, global = -3.857371716259235e-11, cumulative = -4.137373620512331e-10
DILUPBiCGStab:  Solving for omega, Initial residual = 1.361839258640658e-07, Final residual = 5.944495928554481e-15, No Iterations 1
DILUPBiCGStab:  Solving for k, Initial residual = 0.0006057275642825072, Final residual = 2.352886463492794e-13, No Iterations 1
PIMPLE: iteration 5
DILUPBiCGStab:  Solving for Ux, Initial residual = 1.032720068304912e-05, Final residual = 1.246712862656236e-10, No Iterations 1
DILUPBiCGStab:  Solving for Uy, Initial residual = 1.638492150319093e-05, Final residual = 1.898275015911629e-10, No Iterations 1
DICPBiCGStab:  Solving for p, Initial residual = 0.0754468743409837, Final residual = 0.005795891572679868, No Iterations 1
DICPBiCGStab:  Solving for p, Initial residual = 0.01009045258734515, Final residual = 0.004107456739064948, No Iterations 1
time step continuity errors : sum local = 2.117416785599343e-10, global = -3.745034166007678e-11, cumulative = -4.511877037113098e-10
DICPBiCGStab:  Solving for p, Initial residual = 0.006684911094712238, Final residual = 0.003208571268730657, No Iterations 1
DICPBiCGStab:  Solving for p, Initial residual = 0.004543312881385125, Final residual = 0.002901471476465209, No Iterations 1
time step continuity errors : sum local = 1.496035354999649e-10, global = -3.726009144548241e-11, cumulative = -4.884477951567922e-10
DILUPBiCGStab:  Solving for omega, Initial residual = 1.4214425353562e-07, Final residual = 1.235430915329327e-13, No Iterations 1
DILUPBiCGStab:  Solving for k, Initial residual = 0.0005942251150254177, Final residual = 5.69422223878924e-12, No Iterations 1
PIMPLE: converged in 5 iterations
ExecutionTime = 0.32 s  ClockTime = 2 s

---[precice] [0m Time window completed
---[precice] [0m iteration: 1, time-window: 4, time: 0.03 of 10, time-window-size: 0.01, max-timestep-length: 0.01, ongoing: yes, time-window-complete: yes, 
Courant Number mean: 7.51545117796174e-05 max: 0.1202697106545467
Time = 0.04

PIMPLE: iteration 1
DICPCG:  Solving for cellDisplacementx, Initial residual = 0.3973126202828887, Final residual = 9.141703954281466e-07, No Iterations 81
DICPCG:  Solving for cellDisplacementy, Initial residual = 0.6577548215864912, Final residual = 9.475924688219612e-07, No Iterations 83
DICPCG:  Solving for pcorr, Initial residual = 0.9999999999999992, Final residual = 0.7718571351811262, No Iterations 1
DICPCG:  Solving for pcorr, Initial residual = 0.5178286927895115, Final residual = 0.5540384899976143, No Iterations 5
time step continuity errors : sum local = 1.890701846572661e-10, global = -3.478522161719491e-11, cumulative = -5.232330167739871e-10
DILUPBiCGStab:  Solving for Ux, Initial residual = 0.0005065793148517944, Final residual = 1.947659257132816e-09, No Iterations 1
DILUPBiCGStab:  Solving for Uy, Initial residual = 0.0008243145644530499, Final residual = 4.462248942660924e-09, No Iterations 1
DICPBiCGStab:  Solving for p, Initial residual = 0.214288824104281, Final residual = 0.00905179860385737, No Iterations 18
DICPBiCGStab:  Solving for p, Initial residual = 0.4317761511424199, Final residual = 0.009762210262162533, No Iterations 6
time step continuity errors : sum local = 2.581856728944177e-10, global = -1.467489066012129e-11, cumulative = -5.379079074341084e-10
DICPBiCGStab:  Solving for p, Initial residual = 0.1320989846504437, Final residual = 0.009009245967663032, No Iterations 11
DICPBiCGStab:  Solving for p, Initial residual = 0.08165134353900229, Final residual = 0.004340308660861913, No Iterations 5
time step continuity errors : sum local = 7.5285854075723e-11, global = -1.093583218566777e-11, cumulative = -5.488437396197762e-10
DILUPBiCGStab:  Solving for omega, Initial residual = 1.131107524348696e-06, Final residual = 5.604306421426371e-14, No Iterations 1
DILUPBiCGStab:  Solving for k, Initial residual = 0.004664804694252975, Final residual = 1.565285753414123e-12, No Iterations 1
PIMPLE: iteration 2
DILUPBiCGStab:  Solving for Ux, Initial residual = 3.981023378707731e-05, Final residual = 3.518646252380174e-11, No Iterations 1
DILUPBiCGStab:  Solving for Uy, Initial residual = 6.855970635342483e-05, Final residual = 7.900194822410162e-11, No Iterations 1
DICPBiCGStab:  Solving for p, Initial residual = 0.1214179228213903, Final residual = 0.00959391663077587, No Iterations 14
DICPBiCGStab:  Solving for p, Initial residual = 0.1580156361276482, Final residual = 0.009863211760445524, No Iterations 3
time step continuity errors : sum local = 1.723779998861057e-10, global = -3.331484163104833e-12, cumulative = -5.52175223782881e-10
DICPBiCGStab:  Solving for p, Initial residual = 0.04401837129184834, Final residual = 0.009072391140077568, No Iterations 6
DICPBiCGStab:  Solving for p, Initial residual = 0.02611036664044394, Final residual = 0.004944748827971945, No Iterations 4
time step continuity errors : sum local = 8.037408905802367e-11, global = -2.307708362699136e-12, cumulative = -5.544829321455802e-10
DILUPBiCGStab:  Solving for omega, Initial residual = 5.527933267093981e-07, Final residual = 1.597212502827862e-14, No Iterations 1
DILUPBiCGStab:  Solving for k, Initial residual = 0.002133850811620675, Final residual = 3.735641540874728e-13, No Iterations 1
PIMPLE: iteration 3
DILUPBiCGStab:  Solving for Ux, Initial residual = 2.646281691154168e-05, Final residual = 4.392024672183086e-11, No Iterations 1
DILUPBiCGStab:  Solving for Uy, Initial residual = 4.621529503029452e-05, Final residual = 9.611250130607193e-11, No Iterations 1
DICPBiCGStab:  Solving for p, Initial residual = 0.02388998511562838, Final residual = 0.006581732391819232, No Iterations 1
DICPBiCGStab:  Solving for p, Initial residual = 0.007626709751856987, Final residual = 0.004964959590517424, No Iterations 1
time step continuity errors : sum local = 8.051616689232818e-11, global = 3.568911543149726e-14, cumulative = -5.544472430301487e-10
DICPBiCGStab:  Solving for p, Initial residual = 0.007994758105733218, Final residual = 0.004479390501336971, No Iterations 1
DICPBiCGStab:  Solving for p, Initial residual = 0.004907254405831224, Final residual = 0.003805146906245227, No Iterations 1
time step continuity errors : sum local = 6.170903319944014e-11, global = 1.032383781980703e-13, cumulative = -5.543440046519507e-10
DILUPBiCGStab:  Solving for omega, Initial residual = 2.734389667619789e-07, Final residual = 8.459445821259953e-15, No Iterations 1
DILUPBiCGStab:  Solving for k, Initial residual = 0.001015932144715322, Final residual = 2.047910833804566e-13, No Iterations 1
PIMPLE: iteration 4
DILUPBiCGStab:  Solving for Ux, Initial residual = 1.274263892732425e-05, Final residual = 1.098690666333148e-10, No Iterations 1
DILUPBiCGStab:  Solving for Uy, Initial residual = 2.243119995444656e-05, Final residual = 2.422546944644762e-10, No Iterations 1
DICPBiCGStab:  Solving for p, Initial residual = 0.2039108978500742, Final residual = 0.009164250359892625, No Iterations 2
DICPBiCGStab:  Solving for p, Initial residual = 0.01436663377383088, Final residual = 0.008767451327332056, No Iterations 2
time step continuity errors : sum local = 1.374816935938423e-10, global = 1.640384937317554e-12, cumulative = -5.527036197146331e-10
DICPBiCGStab:  Solving for p, Initial residual = 0.0127407950209394, Final residual = 0.008089747490202182, No Iterations 1
DICPBiCGStab:  Solving for p, Initial residual = 0.008598631772028718, Final residual = 0.003731147348857621, No Iterations 3
time step continuity errors : sum local = 5.852936162106215e-11, global = 1.973485889725437e-12, cumulative = -5.507301338249076e-10
DILUPBiCGStab:  Solving for omega, Initial residual = 2.771805194285199e-07, Final residual = 1.656113180173097e-13, No Iterations 1
DILUPBiCGStab:  Solving for k, Initial residual = 0.0009907137140356386, Final residual = 4.385007587010519e-12, No Iterations 1
PIMPLE: converged in 4 iterations
ExecutionTime = 0.38 s  ClockTime = 2 s

---[precice] [0m Time window completed
---[precice] [0m iteration: 1, time-window: 5, time: 0.04 of 10, time-window-size: 0.01, max-timestep-length: 0.01, ongoing: yes, time-window-complete: yes, 
Courant Number mean: 7.651669125321051e-05 max: 0.1193059892024237
Time = 0.05

PIMPLE: iteration 1
DICPCG:  Solving for cellDisplacementx, Initial residual = 0.2432766754678486, Final residual = 8.00797187385199e-07, No Iterations 80
DICPCG:  Solving for cellDisplacementy, Initial residual = 0.4443470819799735, Final residual = 8.062165137620728e-07, No Iterations 82
DICPCG:  Solving for pcorr, Initial residual = 0.9999999999999986, Final residual = 0.5880377528291852, No Iterations 1
DICPCG:  Solving for pcorr, Initial residual = 0.3385821255541214, Final residual = 0.2803219989701456, No Iterations 1
time step continuity errors : sum local = 6.716642166748685e-11, global = 2.12114116358802e-12, cumulative = -5.486089926613196e-10
DILUPBiCGStab:  Solving for Ux, Initial residual = 0.0001150784304338286, Final residual = 1.334983938083088e-11, No Iterations 1
DILUPBiCGStab:  Solving for Uy, Initial residual = 0.0002006126140245524, Final residual = 2.101472878210171e-11, No Iterations 1
DICPBiCGStab:  Solving for p, Initial residual = 0.1921423277615516, Final residual = 0.009241301822035142, No Iterations 4
DICPBiCGStab:  Solving for p, Initial residual = 0.01145598193898497, Final residual = 0.007798487762484879, No Iterations 1
time step continuity errors : sum local = 1.202224977542015e-10, global = 2.911971549168234e-11, cumulative = -5.194892771696373e-10
DICPBiCGStab:  Solving for p, Initial residual = 0.03872004123028363, Final residual = 0.008114709711784707, No Iterations 1
DICPBiCGStab:  Solving for p, Initial residual = 0.008419403407824115, Final residual = 0.004786902710791807, No Iterations 3
time step continuity errors : sum local = 7.379085211772889e-11, global = 2.799303857749024e-11, cumulative = -4.91496238592147e-10
DILUPBiCGStab:  Solving for omega, Initial residual = 1.057840007586802e-06, Final residual = 2.963262801752847e-14, No Iterations 1
DILUPBiCGStab:  Solving for k, Initial residual = 0.003860104895773956, Final residual = 6.884437309885861e-13, No Iterations 1
PIMPLE: iteration 2
DILUPBiCGStab:  Solving for Ux, Initial residual = 4.471900389545677e-05, Final residual = 1.963514590149371e-11, No Iterations 1
DILUPBiCGStab:  Solving for Uy, Initial residual = 8.174169634544177e-05, Final residual = 4.684965539312188e-11, No Iterations 1
DICPBiCGStab:  Solving for p, Initial residual = 0.1994523626983943, Final residual = 0.009706181625591871, No Iterations 2
DICPBiCGStab:  Solving for p, Initial residual = 0.01589197768301671, Final residual = 0.008915370970972379, No Iterations 1
time step continuity errors : sum local = 1.246365159715786e-10, global = 3.930482176775622e-11, cumulative = -4.521914168243907e-10
DICPBiCGStab:  Solving for p, Initial residual = 0.01134468172860437, Final residual = 0.007104860221580692, No Iterations 1
DICPBiCGStab:  Solving for p, Initial residual = 0.007794462941296062, Final residual = 0.004418850212343924, No Iterations 2
time step continuity errors : sum local = 6.163604163343091e-11, global = 3.883889508742988e-11, cumulative = -4.133525217369609e-10
DILUPBiCGStab:  Solving for omega, Initial residual = 1.039712586457968e-06, Final residual = 4.661978370905424e-13, No Iterations 1
DILUPBiCGStab:  Solving for k, Initial residual = 0.003599494989826709, Final residual = 1.128767203669905e-11, No Iterations 1
PIMPLE: converged in 2 iterations
ExecutionTime = 0.42 s  ClockTime = 2 s

---[precice] [0m Time window completed
---[precice] [0m iteration: 1, time-window: 6, time: 0.05 of 10, time-window-size: 0.01, max-timestep-length: 0.01, ongoing: yes, time-window-complete: yes, 
Courant Number mean: 7.649509068483431e-05 max: 0.1186781972237574
Time = 0.06

PIMPLE: iteration 1
DICPCG:  Solving for cellDisplacementx, Initial residual = 0.1751641441605956, Final residual = 8.563581688479188e-07, No Iterations 79
DICPCG:  Solving for cellDisplacementy, Initial residual = 0.3310973533523325, Final residual = 7.703512967035419e-07, No Iterations 81
DICPCG:  Solving for pcorr, Initial residual = 0.9999999999999986, Final residual = 0.6174207867741245, No Iterations 1
DICPCG:  Solving for pcorr, Initial residual = 0.3604375223547037, Final residual = 0.4567797343086183, No Iterations 5
time step continuity errors : sum local = 1.085390578350595e-10, global = 3.727438336549018e-11, cumulative = -3.760781383714707e-10
DILUPBiCGStab:  Solving for Ux, Initial residual = 0.0001006576146090956, Final residual = 6.996951423506275e-12, No Iterations 1
DILUPBiCGStab:  Solving for Uy, Initial residual = 0.0001850146794810136, Final residual = 1.671090845396174e-11, No Iterations 1
DICPBiCGStab:  Solving for p, Initial residual = 0.2109750554404488, Final residual = 0.008619986179607911, No Iterations 2
DICPBiCGStab:  Solving for p, Initial residual = 0.01094909494869255, Final residual = 0.00627861325236677, No Iterations 1
time step continuity errors : sum local = 9.036786103779977e-11, global = 6.424629164200701e-11, cumulative = -3.118318467294637e-10
DICPBiCGStab:  Solving for p, Initial residual = 0.0400127270058662, Final residual = 0.0065879192462412, No Iterations 1
DICPBiCGStab:  Solving for p, Initial residual = 0.007215096304784696, Final residual = 0.004829296874308939, No Iterations 2
time step continuity errors : sum local = 6.941533624453102e-11, global = 6.350537996897259e-11, cumulative = -2.483264667604911e-10
DILUPBiCGStab:  Solving for omega, Initial residual = 9.94654857859259e-07, Final residual = 2.06698068529958e-14, No Iterations 1
DILUPBiCGStab:  Solving for k, Initial residual = 0.003332760351531291, Final residual = 4.648552221342279e-13, No Iterations 1
PIMPLE: iteration 2
DILUPBiCGStab:  Solving for Ux, Initial residual = 4.046509277332375e-05, Final residual = 1.302570387603106e-11, No Iterations 1
DILUPBiCGStab:  Solving for Uy, Initial residual = 7.670233579037883e-05, Final residual = 3.054133313941968e-11, No Iterations 1
DICPBiCGStab:  Solving for p, Initial residual = 0.2130146663803546, Final residual = 0.008799874308336718, No Iterations 2
DICPBiCGStab:  Solving for p, Initial residual = 0.01437712073469831, Final residual = 0.008867688847433225, No Iterations 1
time step continuity errors : sum local = 1.12177043338412e-10, global = 7.393911919104337e-11, cumulative = -1.743873475694477e-10
DICPBiCGStab:  Solving for p, Initial residual = 0.0110218812586833, Final residual = 0.00807749382260004, No Iterations 1
DICPBiCGStab:  Solving for p, Initial residual = 0.008408010945110407, Final residual = 0.004952825854318187, No Iterations 14
time step continuity errors : sum local = 6.232880986886411e-11, global = 2.369848964591094e-11, cumulative = -1.506888579235368e-10
DILUPBiCGStab:  Solving for omega, Initial residual = 9.791969929475186e-07, Final residual = 3.376114113399473e-13, No Iterations 1
DILUPBiCGStab:  Solving for k, Initial residual = 0.00314746073929196, Final residual = 8.111933541898006e-12, No Iterations 1
PIMPLE: converged in 2 iterations
ExecutionTime = 0.46 s  ClockTime = 3 s

---[precice] [0m Time window completed
---[precice] [0m iteration: 1, time-window: 7, time: 0.06 of 10, time-window-size: 0.01, max-timestep-length: 0.01, ongoing: yes, time-window-complete: yes, 
Courant Number mean: 7.638704011296807e-05 max: 0.1172601546088583
Time = 0.07

PIMPLE: iteration 1
DICPCG:  Solving for cellDisplacementx, Initial residual = 0.1368160526243615, Final residual = 6.994698016686718e-07, No Iterations 79
DICPCG:  Solving for cellDisplacementy, Initial residual = 0.262901652065774, Final residual = 8.818904518457183e-07, No Iterations 80
DICPCG:  Solving for pcorr, Initial residual = 0.9999999999999987, Final residual = 0.6482252339796566, No Iterations 1
DICPCG:  Solving for pcorr, Initial residual = 0.3896003718115524, Final residual = 0.3315428650132761, No Iterations 5
time step continuity errors : sum local = 7.87680109106844e-11, global = 2.337761925134185e-11, cumulative = -1.273112386721949e-10
DILUPBiCGStab:  Solving for Ux, Initial residual = 4.437761920503729e-05, Final residual = 5.19601430565861e-12, No Iterations 1
DILUPBiCGStab:  Solving for Uy, Initial residual = 7.862025996964247e-05, Final residual = 9.449227622428476e-12, No Iterations 1
DICPBiCGStab:  Solving for p, Initial residual = 0.290872416126072, Final residual = 0.009936752694063931, No Iterations 4
DICPBiCGStab:  Solving for p, Initial residual = 0.01245040789917663, Final residual = 0.007539402944804692, No Iterations 1
time step continuity errors : sum local = 8.807349239032267e-11, global = 1.406497733951493e-11, cumulative = -1.1324626133268e-10
DICPBiCGStab:  Solving for p, Initial residual = 0.05201612185967606, Final residual = 0.008253193491767293, No Iterations 1
DICPBiCGStab:  Solving for p, Initial residual = 0.008888500770142029, Final residual = 0.003703330488067661, No Iterations 3
time step continuity errors : sum local = 4.329279097120257e-11, global = 1.44802326995598e-11, cumulative = -9.876602863312021e-11
DILUPBiCGStab:  Solving for omega, Initial residual = 9.416314056089697e-07, Final residual = 1.55400208201018e-14, No Iterations 1
DILUPBiCGStab:  Solving for k, Initial residual = 0.002955039721873797, Final residual = 3.555447305623916e-13, No Iterations 1
PIMPLE: iteration 2
DILUPBiCGStab:  Solving for Ux, Initial residual = 1.750132473782191e-05, Final residual = 1.107270950649475e-11, No Iterations 1
DILUPBiCGStab:  Solving for Uy, Initial residual = 3.383438086959725e-05, Final residual = 2.64748526461483e-11, No Iterations 1
DICPBiCGStab:  Solving for p, Initial residual = 0.2703543375338776, Final residual = 0.007789730605074359, No Iterations 2
DICPBiCGStab:  Solving for p, Initial residual = 0.01552513173163433, Final residual = 0.007416412196570598, No Iterations 1
time step continuity errors : sum local = 6.763537575169224e-11, global = 9.528429270405781e-12, cumulative = -8.923759936271443e-11
DICPBiCGStab:  Solving for p, Initial residual = 0.01020260964463362, Final residual = 0.005587151048126395, No Iterations 1
DICPBiCGStab:  Solving for p, Initial residual = 0.005997758143837272, Final residual = 0.003711481878929639, No Iterations 1
time step continuity errors : sum local = 3.383656714448235e-11, global = 9.311533822630438e-12, cumulative = -7.992606554008399e-11
DILUPBiCGStab:  Solving for omega, Initial residual = 9.290876378374456e-07, Final residual = 2.651118497963962e-13, No Iterations 1
DILUPBiCGStab:  Solving for k, Initial residual = 0.002816262342714143, Final residual = 6.479367819144128e-12, No Iterations 1
PIMPLE: converged in 2 iterations
ExecutionTime = 0.5 s  ClockTime = 3 s

---[precice] [0m Time window completed
---[precice] [0m iteration: 1, time-window: 8, time: 0.07 of 10, time-window-size: 0.01, max-timestep-length: 0.01, ongoing: yes, time-window-complete: yes, 
Courant Number mean: 7.613474394424837e-05 max: 0.1162640310463983
Time = 0.08

PIMPLE: iteration 1
DICPCG:  Solving for cellDisplacementx, Initial residual = 0.1123207242906689, Final residual = 8.261703807424806e-07, No Iterations 78
DICPCG:  Solving for cellDisplacementy, Initial residual = 0.2177509386334485, Final residual = 7.090798898642474e-07, No Iterations 80
DICPCG:  Solving for pcorr, Initial residual = 0.9999999999999981, Final residual = 0.5460736793344734, No Iterations 1
DICPCG:  Solving for pcorr, Initial residual = 0.3062106617869185, Final residual = 0.2289369824203892, No Iterations 1
time step continuity errors : sum local = 4.524869533260248e-11, global = 9.436323188866765e-12, cumulative = -7.048974235121723e-11
DILUPBiCGStab:  Solving for Ux, Initial residual = 4.067473300222761e-05, Final residual = 4.287559233099906e-12, No Iterations 1
DILUPBiCGStab:  Solving for Uy, Initial residual = 7.919246142100932e-05, Final residual = 1.008142370963517e-11, No Iterations 1
DICPBiCGStab:  Solving for p, Initial residual = 0.2917113482103124, Final residual = 0.009537078127354806, No Iterations 1
DICPBiCGStab:  Solving for p, Initial residual = 0.01106642195631531, Final residual = 0.003901194309184443, No Iterations 1
time step continuity errors : sum local = 4.388691750451298e-11, global = -7.394580231633918e-13, cumulative = -7.122920037438063e-11
DICPBiCGStab:  Solving for p, Initial residual = 0.04921248812623582, Final residual = 0.003673723494671077, No Iterations 1
DICPBiCGStab:  Solving for p, Initial residual = 0.004549131098186767, Final residual = 0.002556357436247989, No Iterations 1
time step continuity errors : sum local = 2.881242197904912e-11, global = -6.775069618160193e-13, cumulative = -7.190670733619664e-11
DILUPBiCGStab:  Solving for omega, Initial residual = 8.967377077927098e-07, Final residual = 1.267809768914738e-14, No Iterations 1
DILUPBiCGStab:  Solving for k, Initial residual = 0.002670914151957869, Final residual = 2.932786819516447e-13, No Iterations 1
PIMPLE: iteration 2
DILUPBiCGStab:  Solving for Ux, Initial residual = 1.715712256167503e-05, Final residual = 8.830716191898545e-12, No Iterations 1
DILUPBiCGStab:  Solving for Uy, Initial residual = 3.401205898321823e-05, Final residual = 2.071619008538264e-11, No Iterations 1
DICPBiCGStab:  Solving for p, Initial residual = 0.2787957874899356, Final residual = 0.009125136638646307, No Iterations 1
DICPBiCGStab:  Solving for p, Initial residual = 0.01742753800937175, Final residual = 0.006626486727606332, No Iterations 1
time step continuity errors : sum local = 5.662318125591783e-11, global = -5.129434430784969e-12, cumulative = -7.703614176698161e-11
DICPBiCGStab:  Solving for p, Initial residual = 0.009842659649656537, Final residual = 0.005575064123210524, No Iterations 1
DICPBiCGStab:  Solving for p, Initial residual = 0.005876900144654197, Final residual = 0.004804749580023838, No Iterations 2
time step continuity errors : sum local = 4.0804257958956e-11, global = -5.340048122301006e-12, cumulative = -8.237618988928261e-11
DILUPBiCGStab:  Solving for omega, Initial residual = 8.863500595854376e-07, Final residual = 2.196660106995108e-13, No Iterations 1
DILUPBiCGStab:  Solving for k, Initial residual = 0.002563226885896451, Final residual = 5.412442441294558e-12, No Iterations 1
PIMPLE: converged in 2 iterations
ExecutionTime = 0.54 s  ClockTime = 3 s

---[precice] [0m Time window completed
---[precice] [0m iteration: 1, time-window: 9, time: 0.08 of 10, time-window-size: 0.01, max-timestep-length: 0.01, ongoing: yes, time-window-complete: yes, 
Courant Number mean: 7.614070636357595e-05 max: 0.1154471774606001
Time = 0.09

PIMPLE: iteration 1
DICPCG:  Solving for cellDisplacementx, Initial residual = 0.09532868142712816, Final residual = 9.409343918801355e-07, No Iterations 77
DICPCG:  Solving for cellDisplacementy, Initial residual = 0.1857361007422099, Final residual = 8.727881936221807e-07, No Iterations 79
DICPCG:  Solving for pcorr, Initial residual = 0.9999999999999982, Final residual = 0.5656132147123978, No Iterations 1
DICPCG:  Solving for pcorr, Initial residual = 0.3222491870544655, Final residual = 0.2577912488330268, No Iterations 1
time step continuity errors : sum local = 5.165226982576589e-11, global = -5.17833381554681e-12, cumulative = -8.755452370482942e-11
DILUPBiCGStab:  Solving for Ux, Initial residual = 3.881307521030584e-05, Final residual = 3.463713544187351e-12, No Iterations 1
DILUPBiCGStab:  Solving for Uy, Initial residual = 7.869455582510556e-05, Final residual = 8.252014995663913e-12, No Iterations 1
DICPBiCGStab:  Solving for p, Initial residual = 0.3078882307091926, Final residual = 0.008790866814426803, No Iterations 2
DICPBiCGStab:  Solving for p, Initial residual = 0.01078525144221953, Final residual = 0.005425284772288087, No Iterations 1
time step continuity errors : sum local = 5.875336042511749e-11, global = -1.530414267996397e-11, cumulative = -1.028586663847934e-10
DICPBiCGStab:  Solving for p, Initial residual = 0.05188729696154219, Final residual = 0.005648703920672453, No Iterations 1
DICPBiCGStab:  Solving for p, Initial residual = 0.006193801248920656, Final residual = 0.004351227671149401, No Iterations 1
time step continuity errors : sum local = 4.712283960519482e-11, global = -1.525498364359981e-11, cumulative = -1.181136500283932e-10
DILUPBiCGStab:  Solving for omega, Initial residual = 8.587973873404084e-07, Final residual = 1.065668401676897e-14, No Iterations 1
DILUPBiCGStab:  Solving for k, Initial residual = 0.002449627528232738, Final residual = 2.51014106942773e-13, No Iterations 1
PIMPLE: iteration 2
DILUPBiCGStab:  Solving for Ux, Initial residual = 1.622786695485743e-05, Final residual = 8.378400834795707e-12, No Iterations 1
DILUPBiCGStab:  Solving for Uy, Initial residual = 3.344474967574407e-05, Final residual = 1.6128483072773e-11, No Iterations 1
DICPBiCGStab:  Solving for p, Initial residual = 0.2878970665650615, Final residual = 0.007013757603062274, No Iterations 2
DICPBiCGStab:  Solving for p, Initial residual = 0.015776504301279, Final residual = 0.007396225886977247, No Iterations 1
time step continuity errors : sum local = 5.910254962172854e-11, global = -1.96662429678417e-11, cumulative = -1.377798929962349e-10
DICPBiCGStab:  Solving for p, Initial residual = 0.01046142200680175, Final residual = 0.006779256208316326, No Iterations 1
DICPBiCGStab:  Solving for p, Initial residual = 0.007114215778938264, Final residual = 0.004336627334306155, No Iterations 3
time step continuity errors : sum local = 3.448987799466162e-11, global = -1.947301570306808e-11, cumulative = -1.57252908699303e-10
DILUPBiCGStab:  Solving for omega, Initial residual = 8.500754437460954e-07, Final residual = 1.853017141541262e-13, No Iterations 1
DILUPBiCGStab:  Solving for k, Initial residual = 0.002363825662910465, Final residual = 4.683306315901296e-12, No Iterations 1
PIMPLE: converged in 2 iterations
ExecutionTime = 0.58 s  ClockTime = 3 s

---[precice] [0m Time window completed
---[precice] [0m iteration: 1, time-window: 10, time: 0.09 of 10, time-window-size: 0.01, max-timestep-length: 0.01, ongoing: yes, time-window-complete: yes, 
Courant Number mean: 7.61212943999777e-05 max: 0.1146155482958572
Time = 0.1

PIMPLE: iteration 1
DICPCG:  Solving for cellDisplacementx, Initial residual = 0.08274434280482677, Final residual = 8.431944181790843e-07, No Iterations 77
DICPCG:  Solving for cellDisplacementy, Initial residual = 0.1618873388162136, Final residual = 8.151504261983813e-07, No Iterations 79
DICPCG:  Solving for pcorr, Initial residual = 0.9999999999999981, Final residual = 0.5705697821321218, No Iterations 1
DICPCG:  Solving for pcorr, Initial residual = 0.3226517956304895, Final residual = 0.2482058315061794, No Iterations 1
time step continuity errors : sum local = 4.830580404560067e-11, global = -1.927429762469554e-11, cumulative = -1.765272063239985e-10
DILUPBiCGStab:  Solving for Ux, Initial residual = 3.570284383262033e-05, Final residual = 2.656428084142778e-12, No Iterations 1
DILUPBiCGStab:  Solving for Uy, Initial residual = 7.441333205709533e-05, Final residual = 5.435493299249048e-12, No Iterations 1
DICPBiCGStab:  Solving for p, Initial residual = 0.3227876708007437, Final residual = 0.008608792592768932, No Iterations 2
DICPBiCGStab:  Solving for p, Initial residual = 0.009982741398152294, Final residual = 0.005089062782871008, No Iterations 1
time step continuity errors : sum local = 5.280251599519293e-11, global = -2.912311018002465e-11, cumulative = -2.056503165040232e-10
DICPBiCGStab:  Solving for p, Initial residual = 0.05403478373668128, Final residual = 0.005134188592572693, No Iterations 1
DICPBiCGStab:  Solving for p, Initial residual = 0.00547749118814164, Final residual = 0.003995884540705145, No Iterations 1
time step continuity errors : sum local = 4.143088970378753e-11, global = -2.895579700974064e-11, cumulative = -2.346061135137638e-10
DILUPBiCGStab:  Solving for omega, Initial residual = 8.264835868758013e-07, Final residual = 9.13897084092591e-15, No Iterations 1
DILUPBiCGStab:  Solving for k, Initial residual = 0.002272722331876103, Final residual = 2.222420316639639e-13, No Iterations 1
PIMPLE: iteration 2
DILUPBiCGStab:  Solving for Ux, Initial residual = 1.490886979814368e-05, Final residual = 8.427143368759295e-12, No Iterations 1
DILUPBiCGStab:  Solving for Uy, Initial residual = 3.143445712870991e-05, Final residual = 1.325550174411517e-11, No Iterations 1
DICPBiCGStab:  Solving for p, Initial residual = 0.2974458291251219, Final residual = 0.009692244203740709, No Iterations 1
DICPBiCGStab:  Solving for p, Initial residual = 0.01966122538047579, Final residual = 0.007654154104674527, No Iterations 1
time step continuity errors : sum local = 5.713542672578178e-11, global = -3.309289813304403e-11, cumulative = -2.676990116468079e-10
DICPBiCGStab:  Solving for p, Initial residual = 0.01143411533203165, Final residual = 0.006301785455901191, No Iterations 1
DICPBiCGStab:  Solving for p, Initial residual = 0.007135567046807714, Final residual = 0.004983425477632279, No Iterations 2
time step continuity errors : sum local = 3.680652621756369e-11, global = -3.289168041106517e-11, cumulative = -3.00590692057873e-10
DILUPBiCGStab:  Solving for omega, Initial residual = 8.194435270895616e-07, Final residual = 1.616256259379146e-13, No Iterations 1
DILUPBiCGStab:  Solving for k, Initial residual = 0.002202857055929542, Final residual = 4.215821943061019e-12, No Iterations 1
PIMPLE: converged in 2 iterations
ExecutionTime = 0.62 s  ClockTime = 3 s

---[precice] [0m Time window completed
---[precice] [0m iteration: 1, time-window: 11, time: 0.1 of 10, time-window-size: 0.01, max-timestep-length: 0.01, ongoing: yes, time-window-complete: yes, 
Courant Number mean: 7.628459237012792e-05 max: 0.1140361309471215
Time = 0.11

PIMPLE: iteration 1
DICPCG:  Solving for cellDisplacementx, Initial residual = 0.07309068435409395, Final residual = 9.281358543395218e-07, No Iterations 76
DICPCG:  Solving for cellDisplacementy, Initial residual = 0.1434690309512223, Final residual = 7.180101189964486e-07, No Iterations 79
DICPCG:  Solving for pcorr, Initial residual = 0.9999999999999982, Final residual = 0.6229709433177898, No Iterations 1
DICPCG:  Solving for pcorr, Initial residual = 0.3576865565110471, Final residual = 0.2827855418897671, No Iterations 1
time step continuity errors : sum local = 5.626243384077001e-11, global = -3.267608412147853e-11, cumulative = -3.332667761793516e-10
DILUPBiCGStab:  Solving for Ux, Initial residual = 3.316631928263539e-05, Final residual = 2.591180900244621e-12, No Iterations 1
DILUPBiCGStab:  Solving for Uy, Initial residual = 7.092036515793487e-05, Final residual = 4.981434510567794e-12, No Iterations 1
DICPBiCGStab:  Solving for p, Initial residual = 0.3348113443199382, Final residual = 0.009400073920125221, No Iterations 2
DICPBiCGStab:  Solving for p, Initial residual = 0.01116856982772137, Final residual = 0.00575617805617275, No Iterations 1
time step continuity errors : sum local = 5.750455151446072e-11, global = -4.205493097888931e-11, cumulative = -3.753217071582409e-10
DICPBiCGStab:  Solving for p, Initial residual = 0.05636450486590727, Final residual = 0.006059358886903359, No Iterations 1
DICPBiCGStab:  Solving for p, Initial residual = 0.006446471916824623, Final residual = 0.004795690240531103, No Iterations 2
time step continuity errors : sum local = 4.787374925736029e-11, global = -4.146034292469095e-11, cumulative = -4.167820500829319e-10
DILUPBiCGStab:  Solving for omega, Initial residual = 7.991185830114288e-07, Final residual = 8.021973564750026e-15, No Iterations 1
DILUPBiCGStab:  Solving for k, Initial residual = 0.00212831368997501, Final residual = 2.018876939244506e-13, No Iterations 1
PIMPLE: iteration 2
DILUPBiCGStab:  Solving for Ux, Initial residual = 1.334193858876621e-05, Final residual = 8.072926410294801e-12, No Iterations 1
DILUPBiCGStab:  Solving for Uy, Initial residual = 2.889649754919043e-05, Final residual = 1.322994510814276e-11, No Iterations 1
DICPBiCGStab:  Solving for p, Initial residual = 0.3078866940101325, Final residual = 0.008917247441731902, No Iterations 2
DICPBiCGStab:  Solving for p, Initial residual = 0.02159241033084697, Final residual = 0.008204025796118387, No Iterations 2
time step continuity errors : sum local = 5.669728236024922e-11, global = -4.524911099158193e-11, cumulative = -4.620311610745138e-10
DICPBiCGStab:  Solving for p, Initial residual = 0.01299885832516393, Final residual = 0.007388517279524697, No Iterations 1
DICPBiCGStab:  Solving for p, Initial residual = 0.008254728918846226, Final residual = 0.004930938989873237, No Iterations 14
time step continuity errors : sum local = 3.361510006882842e-11, global = -7.14232066983617e-12, cumulative = -4.691734817443499e-10
DILUPBiCGStab:  Solving for omega, Initial residual = 7.930880552315429e-07, Final residual = 1.420773039610969e-13, No Iterations 1
DILUPBiCGStab:  Solving for k, Initial residual = 0.002070400837875894, Final residual = 3.826662410391576e-12, No Iterations 1
PIMPLE: converged in 2 iterations
ExecutionTime = 0.66 s  ClockTime = 3 s

---[precice] [0m Time window completed
---[precice] [0m iteration: 1, time-window: 12, time: 0.11 of 10, time-window-size: 0.01, max-timestep-length: 0.01, ongoing: yes, time-window-complete: yes, 
Courant Number mean: 7.61857163260052e-05 max: 0.1130868715385376
Time = 0.12

PIMPLE: iteration 1
DICPCG:  Solving for cellDisplacementx, Initial residual = 0.06547430455411681, Final residual = 8.721311528271298e-07, No Iterations 76
DICPCG:  Solving for cellDisplacementy, Initial residual = 0.1288113275406274, Final residual = 9.293351818113428e-07, No Iterations 78
DICPCG:  Solving for pcorr, Initial residual = 0.9999999999999981, Final residual = 0.5897910390477376, No Iterations 1
DICPCG:  Solving for pcorr, Initial residual = 0.3412784006208091, Final residual = 0.2537435535582173, No Iterations 1
time step continuity errors : sum local = 4.758063575628792e-11, global = -7.015167252400445e-12, cumulative = -4.761886489967503e-10
DILUPBiCGStab:  Solving for Ux, Initial residual = 5.994265767026587e-05, Final residual = 2.672272602821223e-12, No Iterations 1
DILUPBiCGStab:  Solving for Uy, Initial residual = 0.0001329131836571989, Final residual = 4.67566308709013e-12, No Iterations 1
DICPBiCGStab:  Solving for p, Initial residual = 0.2938327512085773, Final residual = 0.009980814203900483, No Iterations 2
DICPBiCGStab:  Solving for p, Initial residual = 0.01201679509311909, Final residual = 0.006862937141125677, No Iterations 1
time step continuity errors : sum local = 7.662175383037981e-11, global = 1.070144692156284e-11, cumulative = -4.654872020751875e-10
DICPBiCGStab:  Solving for p, Initial residual = 0.05090354868727615, Final residual = 0.0070243614031071, No Iterations 1
DICPBiCGStab:  Solving for p, Initial residual = 0.007233659536239873, Final residual = 0.004948261771402299, No Iterations 2
time step continuity errors : sum local = 5.529122387972469e-11, global = 1.063741577516582e-11, cumulative = -4.548497863000217e-10
DILUPBiCGStab:  Solving for omega, Initial residual = 7.757209157401266e-07, Final residual = 7.103028662574778e-15, No Iterations 1
DILUPBiCGStab:  Solving for k, Initial residual = 0.002008291035442064, Final residual = 1.853107541201261e-13, No Iterations 1
PIMPLE: iteration 2
DILUPBiCGStab:  Solving for Ux, Initial residual = 2.600304978854532e-05, Final residual = 8.131480273103515e-12, No Iterations 1
DILUPBiCGStab:  Solving for Uy, Initial residual = 5.811919112926288e-05, Final residual = 1.527032889525824e-11, No Iterations 1
DICPBiCGStab:  Solving for p, Initial residual = 0.2550250593485517, Final residual = 0.007646159684894329, No Iterations 2
DICPBiCGStab:  Solving for p, Initial residual = 0.01683702210661583, Final residual = 0.007482451636031771, No Iterations 1
time step continuity errors : sum local = 6.609621619014535e-11, global = 1.859151571871055e-11, cumulative = -4.362582705813111e-10
DICPBiCGStab:  Solving for p, Initial residual = 0.01042673799058688, Final residual = 0.005807031802933589, No Iterations 1
DICPBiCGStab:  Solving for p, Initial residual = 0.006469637296597747, Final residual = 0.004430599294760838, No Iterations 1
time step continuity errors : sum local = 3.891556807276825e-11, global = 1.868712529235766e-11, cumulative = -4.175711452889534e-10
DILUPBiCGStab:  Solving for omega, Initial residual = 7.710660483429062e-07, Final residual = 1.263485461440061e-13, No Iterations 1
DILUPBiCGStab:  Solving for k, Initial residual = 0.001959550166962481, Final residual = 3.541628433054563e-12, No Iterations 1
PIMPLE: converged in 2 iterations
ExecutionTime = 0.6899999999999999 s  ClockTime = 3 s

---[precice] [0m Time window completed
---[precice] [0m iteration: 1, time-window: 13, time: 0.12 of 10, time-window-size: 0.01, max-timestep-length: 0.01, ongoing: yes, time-window-complete: yes, 
Courant Number mean: 7.616087638304666e-05 max: 0.1124682988585404
Time = 0.13

PIMPLE: iteration 1
DICPCG:  Solving for cellDisplacementx, Initial residual = 0.05930092958970255, Final residual = 7.38284197846899e-07, No Iterations 76
DICPCG:  Solving for cellDisplacementy, Initial residual = 0.1168699017897731, Final residual = 8.631572415771332e-07, No Iterations 78
DICPCG:  Solving for pcorr, Initial residual = 0.9999999999999981, Final residual = 0.5931717150143087, No Iterations 1
DICPCG:  Solving for pcorr, Initial residual = 0.3412883216575111, Final residual = 0.2616183237801123, No Iterations 1
time step continuity errors : sum local = 4.987740750448396e-11, global = 1.884303718297822e-11, cumulative = -3.987281081059752e-10
DILUPBiCGStab:  Solving for Ux, Initial residual = 6.001347735077635e-05, Final residual = 2.530400249300504e-12, No Iterations 1
DILUPBiCGStab:  Solving for Uy, Initial residual = 0.0001356483077391505, Final residual = 6.006119052347241e-12, No Iterations 1
DICPBiCGStab:  Solving for p, Initial residual = 0.2876853806547755, Final residual = 0.00781345548352437, No Iterations 2
DICPBiCGStab:  Solving for p, Initial residual = 0.01075529675228936, Final residual = 0.005126082243207466, No Iterations 1
time step continuity errors : sum local = 5.565731264362687e-11, global = 3.687629351881903e-11, cumulative = -3.618518145871562e-10
DICPBiCGStab:  Solving for p, Initial residual = 0.04934162806732548, Final residual = 0.005263057201282341, No Iterations 1
DICPBiCGStab:  Solving for p, Initial residual = 0.005652497568504527, Final residual = 0.004511073100327922, No Iterations 1
time step continuity errors : sum local = 4.897733163870129e-11, global = 3.685810633153462e-11, cumulative = -3.249937082556216e-10
DILUPBiCGStab:  Solving for omega, Initial residual = 7.55651535908147e-07, Final residual = 6.376740085648566e-15, No Iterations 1
DILUPBiCGStab:  Solving for k, Initial residual = 0.001907132313478288, Final residual = 1.721814963296566e-13, No Iterations 1
PIMPLE: iteration 2
DILUPBiCGStab:  Solving for Ux, Initial residual = 2.546634450902465e-05, Final residual = 6.859029287717916e-12, No Iterations 1
DILUPBiCGStab:  Solving for Uy, Initial residual = 5.80300325946464e-05, Final residual = 1.295399137665337e-11, No Iterations 1
DICPBiCGStab:  Solving for p, Initial residual = 0.2569386731095298, Final residual = 0.009104637019400032, No Iterations 1
DICPBiCGStab:  Solving for p, Initial residual = 0.01920387823798696, Final residual = 0.007605537718399644, No Iterations 1
time step continuity errors : sum local = 6.488905310144856e-11, global = 4.461310091003721e-11, cumulative = -2.803806073455844e-10
DICPBiCGStab:  Solving for p, Initial residual = 0.01129686580720418, Final residual = 0.006593513655307009, No Iterations 1
DICPBiCGStab:  Solving for p, Initial residual = 0.007285438228089768, Final residual = 0.004835174546752131, No Iterations 16
time step continuity errors : sum local = 4.079780431823771e-11, global = 2.29520919953177e-11, cumulative = -2.574285153502667e-10
DILUPBiCGStab:  Solving for omega, Initial residual = 7.519357270379074e-07, Final residual = 1.136883166966362e-13, No Iterations 1
DILUPBiCGStab:  Solving for k, Initial residual = 0.001865606274204343, Final residual = 3.285043920849138e-12, No Iterations 1
PIMPLE: converged in 2 iterations
ExecutionTime = 0.74 s  ClockTime = 3 s

---[precice] [0m Time window completed
---[precice] [0m iteration: 1, time-window: 14, time: 0.13 of 10, time-window-size: 0.01, max-timestep-length: 0.01, ongoing: yes, time-window-complete: yes, 
Courant Number mean: 7.617034012335216e-05 max: 0.1118120662895792
Time = 0.14

PIMPLE: iteration 1
DICPCG:  Solving for cellDisplacementx, Initial residual = 0.05415945264261052, Final residual = 9.921613238788594e-07, No Iterations 75
DICPCG:  Solving for cellDisplacementy, Initial residual = 0.1070006254767399, Final residual = 7.70833817928623e-07, No Iterations 78
DICPCG:  Solving for pcorr, Initial residual = 0.9999999999999983, Final residual = 0.6570625643052835, No Iterations 1
DICPCG:  Solving for pcorr, Initial residual = 0.3888456958044965, Final residual = 0.470101301111753, No Iterations 5
time step continuity errors : sum local = 9.413508076718467e-11, global = 1.973019136468356e-11, cumulative = -2.376983239855831e-10
DILUPBiCGStab:  Solving for Ux, Initial residual = 1.978388978540967e-05, Final residual = 2.825037576808403e-12, No Iterations 1
DILUPBiCGStab:  Solving for Uy, Initial residual = 4.306120723553013e-05, Final residual = 7.270830127520653e-12, No Iterations 1
DICPBiCGStab:  Solving for p, Initial residual = 0.3904285930671604, Final residual = 0.009877296305357976, No Iterations 6
DICPBiCGStab:  Solving for p, Initial residual = 0.01686154642564269, Final residual = 0.006098545479026037, No Iterations 1
time step continuity errors : sum local = 5.408838217506337e-11, global = 1.904703025164494e-11, cumulative = -2.186512937339382e-10
DICPBiCGStab:  Solving for p, Initial residual = 0.06322285117862675, Final residual = 0.006392019551681777, No Iterations 1
DICPBiCGStab:  Solving for p, Initial residual = 0.006900877367353935, Final residual = 0.004991998198028886, No Iterations 2
time step continuity errors : sum local = 4.420031846688142e-11, global = 1.850595676837747e-11, cumulative = -2.001453369655607e-10
DILUPBiCGStab:  Solving for omega, Initial residual = 7.385590930041446e-07, Final residual = 5.785642798376903e-15, No Iterations 1
DILUPBiCGStab:  Solving for k, Initial residual = 0.001820768429154277, Final residual = 1.617195797162018e-13, No Iterations 1
PIMPLE: iteration 2
DILUPBiCGStab:  Solving for Ux, Initial residual = 6.439203318977348e-06, Final residual = 6.873095855403317e-12, No Iterations 1
DILUPBiCGStab:  Solving for Uy, Initial residual = 1.463771203669239e-05, Final residual = 1.581390533089131e-11, No Iterations 1
DICPBiCGStab:  Solving for p, Initial residual = 0.3366109245409643, Final residual = 0.009847882899218898, No Iterations 2
DICPBiCGStab:  Solving for p, Initial residual = 0.02570059454316335, Final residual = 0.009987272577503708, No Iterations 2
time step continuity errors : sum local = 5.75593970203948e-11, global = 1.748556100230538e-11, cumulative = -1.826597759632553e-10
DICPBiCGStab:  Solving for p, Initial residual = 0.01701751233726168, Final residual = 0.009072110337462455, No Iterations 2
DICPBiCGStab:  Solving for p, Initial residual = 0.01056394588008949, Final residual = 0.004820469223550506, No Iterations 4
time step continuity errors : sum local = 2.774728087697994e-11, global = 8.837342323729785e-12, cumulative = -1.738224336395255e-10
DILUPBiCGStab:  Solving for omega, Initial residual = 7.352085984755497e-07, Final residual = 1.023149119992421e-13, No Iterations 1
DILUPBiCGStab:  Solving for k, Initial residual = 0.00178498697821971, Final residual = 3.06784969212463e-12, No Iterations 1
PIMPLE: converged in 2 iterations
ExecutionTime = 0.78 s  ClockTime = 3 s

---[precice] [0m Time window completed
---[precice] [0m iteration: 1, time-window: 15, time: 0.14 of 10, time-window-size: 0.01, max-timestep-length: 0.01, ongoing: yes, time-window-complete: yes, 
Courant Number mean: 7.618315405489951e-05 max: 0.1111095405585106
Time = 0.15

PIMPLE: iteration 1
DICPCG:  Solving for cellDisplacementx, Initial residual = 0.04984062419278897, Final residual = 8.587437083161242e-07, No Iterations 75
DICPCG:  Solving for cellDisplacementy, Initial residual = 0.09865912419543087, Final residual = 9.831651594324714e-07, No Iterations 77
DICPCG:  Solving for pcorr, Initial residual = 0.999999999999998, Final residual = 0.5976166697357599, No Iterations 1
DICPCG:  Solving for pcorr, Initial residual = 0.3425571932484658, Final residual = 0.2514155043743142, No Iterations 1
time step continuity errors : sum local = 4.464523213807728e-11, global = 8.867673289522066e-12, cumulative = -1.649547603500035e-10
DILUPBiCGStab:  Solving for Ux, Initial residual = 3.203539366461386e-05, Final residual = 1.77563883269923e-12, No Iterations 1
DILUPBiCGStab:  Solving for Uy, Initial residual = 7.220453393675285e-05, Final residual = 4.108608429016884e-12, No Iterations 1
DICPBiCGStab:  Solving for p, Initial residual = 0.3710954041222548, Final residual = 0.009000825619785905, No Iterations 3
DICPBiCGStab:  Solving for p, Initial residual = 0.01276528339732647, Final residual = 0.006136335999233374, No Iterations 1
time step continuity errors : sum local = 5.372391586912308e-11, global = -1.192822567798625e-12, cumulative = -1.661475829178021e-10
DICPBiCGStab:  Solving for p, Initial residual = 0.06079421133302809, Final residual = 0.006727381686393947, No Iterations 1
DICPBiCGStab:  Solving for p, Initial residual = 0.007126805979016938, Final residual = 0.004866569689375804, No Iterations 2
time step continuity errors : sum local = 4.267692828628731e-11, global = -1.527501183825286e-12, cumulative = -1.676750841016274e-10
DILUPBiCGStab:  Solving for omega, Initial residual = 7.239191071835946e-07, Final residual = 5.216464955053739e-15, No Iterations 1
DILUPBiCGStab:  Solving for k, Initial residual = 0.001746136877448653, Final residual = 1.52078315141919e-13, No Iterations 1
PIMPLE: iteration 2
DILUPBiCGStab:  Solving for Ux, Initial residual = 1.353587244541939e-05, Final residual = 7.052192770823091e-12, No Iterations 1
DILUPBiCGStab:  Solving for Uy, Initial residual = 3.15520202826464e-05, Final residual = 1.219558526689087e-11, No Iterations 1
DICPBiCGStab:  Solving for p, Initial residual = 0.3300172409849334, Final residual = 0.008666899412862979, No Iterations 2
DICPBiCGStab:  Solving for p, Initial residual = 0.02328756072584252, Final residual = 0.009386911863818031, No Iterations 1
time step continuity errors : sum local = 5.389005254924836e-11, global = -6.009727220140843e-12, cumulative = -1.736848113217682e-10
DICPBiCGStab:  Solving for p, Initial residual = 0.01452946704202788, Final residual = 0.007354157071042646, No Iterations 1
DICPBiCGStab:  Solving for p, Initial residual = 0.00816544981781913, Final residual = 0.004103462205721006, No Iterations 2
time step continuity errors : sum local = 2.339150306879159e-11, global = -6.179592993878713e-12, cumulative = -1.79864404315647e-10
DILUPBiCGStab:  Solving for omega, Initial residual = 7.211228919422845e-07, Final residual = 9.18743255198247e-14, No Iterations 1
DILUPBiCGStab:  Solving for k, Initial residual = 0.00171497834922823, Final residual = 2.915728531595895e-12, No Iterations 1
PIMPLE: converged in 2 iterations
ExecutionTime = 0.82 s  ClockTime = 3 s

---[precice] [0m Time window completed
---[precice] [0m iteration: 1, time-window: 16, time: 0.15 of 10, time-window-size: 0.01, max-timestep-length: 0.01, ongoing: yes, time-window-complete: yes, 
Courant Number mean: 7.620781780676816e-05 max: 0.1105505699990822
Time = 0.16

PIMPLE: iteration 1
DICPCG:  Solving for cellDisplacementx, Initial residual = 0.046146857774648, Final residual = 8.094175354183057e-07, No Iterations 75
DICPCG:  Solving for cellDisplacementy, Initial residual = 0.09152072201986797, Final residual = 9.011910455754659e-07, No Iterations 77
DICPCG:  Solving for pcorr, Initial residual = 0.9999999999999978, Final residual = 0.5809176189013201, No Iterations 1
DICPCG:  Solving for pcorr, Initial residual = 0.3293768075724539, Final residual = 0.2380787366583067, No Iterations 1
time step continuity errors : sum local = 4.034482298358817e-11, global = -6.043618775580156e-12, cumulative = -1.859080230912271e-10
DILUPBiCGStab:  Solving for Ux, Initial residual = 3.076069411341419e-05, Final residual = 2.02326780135257e-12, No Iterations 1
DILUPBiCGStab:  Solving for Uy, Initial residual = 7.323968034383515e-05, Final residual = 5.007956545796747e-12, No Iterations 1
DICPBiCGStab:  Solving for p, Initial residual = 0.3747451171432982, Final residual = 0.009860401591920235, No Iterations 2
DICPBiCGStab:  Solving for p, Initial residual = 0.0133484572766662, Final residual = 0.005688752014731846, No Iterations 1
time step continuity errors : sum local = 4.859735219883033e-11, global = -1.645086946259605e-11, cumulative = -2.023588925538232e-10
DICPBiCGStab:  Solving for p, Initial residual = 0.06091468222237548, Final residual = 0.005850589169724071, No Iterations 1
DICPBiCGStab:  Solving for p, Initial residual = 0.006378276756304948, Final residual = 0.004563901589080465, No Iterations 1
time step continuity errors : sum local = 3.902267765111016e-11, global = -1.630032026461171e-11, cumulative = -2.186592128184349e-10
DILUPBiCGStab:  Solving for omega, Initial residual = 7.11124426342436e-07, Final residual = 4.677815138902825e-15, No Iterations 1
DILUPBiCGStab:  Solving for k, Initial residual = 0.001681057697739784, Final residual = 1.437459250896483e-13, No Iterations 1
PIMPLE: iteration 2
DILUPBiCGStab:  Solving for Ux, Initial residual = 1.283150941059681e-05, Final residual = 6.217576757302661e-12, No Iterations 1
DILUPBiCGStab:  Solving for Uy, Initial residual = 3.079173566333544e-05, Final residual = 1.089810606581829e-11, No Iterations 1
DICPBiCGStab:  Solving for p, Initial residual = 0.3346019602336244, Final residual = 0.007792171899664594, No Iterations 2
DICPBiCGStab:  Solving for p, Initial residual = 0.02293827329437848, Final residual = 0.009029856588737254, No Iterations 1
time step continuity errors : sum local = 4.991973124309148e-11, global = -2.060078837435745e-11, cumulative = -2.392600011927923e-10
DICPBiCGStab:  Solving for p, Initial residual = 0.01479096137775875, Final residual = 0.008199549289705319, No Iterations 1
DICPBiCGStab:  Solving for p, Initial residual = 0.009077655791347667, Final residual = 0.004668557413828572, No Iterations 4
time step continuity errors : sum local = 2.561263614745392e-11, global = -1.899980947179608e-11, cumulative = -2.582598106645884e-10
DILUPBiCGStab:  Solving for omega, Initial residual = 7.088260710868864e-07, Final residual = 8.234503915630822e-14, No Iterations 1
DILUPBiCGStab:  Solving for k, Initial residual = 0.001653689026507253, Final residual = 2.75770581572208e-12, No Iterations 1
PIMPLE: converged in 2 iterations
ExecutionTime = 0.86 s  ClockTime = 3 s

---[precice] [0m Time window completed
---[precice] [0m iteration: 1, time-window: 17, time: 0.16 of 10, time-window-size: 0.01, max-timestep-length: 0.01, ongoing: yes, time-window-complete: yes, 
Courant Number mean: 7.627173157687494e-05 max: 0.1099242026620458
Time = 0.17

PIMPLE: iteration 1
DICPCG:  Solving for cellDisplacementx, Initial residual = 0.04295833731820073, Final residual = 7.377732835073816e-07, No Iterations 75
DICPCG:  Solving for cellDisplacementy, Initial residual = 0.08535253986302077, Final residual = 8.688739841658739e-07, No Iterations 77
DICPCG:  Solving for pcorr, Initial residual = 0.9999999999999979, Final residual = 0.5969432557137662, No Iterations 1
DICPCG:  Solving for pcorr, Initial residual = 0.3414775316113493, Final residual = 0.2478460507206706, No Iterations 1
time step continuity errors : sum local = 4.254438868780829e-11, global = -1.876439353599588e-11, cumulative = -2.770242042005843e-10
DILUPBiCGStab:  Solving for Ux, Initial residual = 2.640474275284442e-05, Final residual = 1.655729825748066e-12, No Iterations 1
DILUPBiCGStab:  Solving for Uy, Initial residual = 6.330148468253611e-05, Final residual = 4.112592959626102e-12, No Iterations 1
DICPBiCGStab:  Solving for p, Initial residual = 0.3859843097050943, Final residual = 0.008531353279650373, No Iterations 3
DICPBiCGStab:  Solving for p, Initial residual = 0.01317258632384655, Final residual = 0.005621360693390613, No Iterations 1
time step continuity errors : sum local = 4.638054619489207e-11, global = -2.725170972905667e-11, cumulative = -3.04275913929641e-10
DICPBiCGStab:  Solving for p, Initial residual = 0.06310468712215987, Final residual = 0.006365997123516031, No Iterations 1
DICPBiCGStab:  Solving for p, Initial residual = 0.006904804728280569, Final residual = 0.004596313594911417, No Iterations 2
time step continuity errors : sum local = 3.795692401099366e-11, global = -2.640163420307429e-11, cumulative = -3.306775481327152e-10
DILUPBiCGStab:  Solving for omega, Initial residual = 6.999839879980853e-07, Final residual = 4.248229004433839e-15, No Iterations 1
DILUPBiCGStab:  Solving for k, Initial residual = 0.001623773244680065, Final residual = 1.374318806957588e-13, No Iterations 1
PIMPLE: iteration 2
DILUPBiCGStab:  Solving for Ux, Initial residual = 1.01434772800138e-05, Final residual = 6.348373217633456e-12, No Iterations 1
DILUPBiCGStab:  Solving for Uy, Initial residual = 2.428015547217689e-05, Final residual = 1.191628542832184e-11, No Iterations 1
DICPBiCGStab:  Solving for p, Initial residual = 0.3454206541272115, Final residual = 0.009158652351373866, No Iterations 2
DICPBiCGStab:  Solving for p, Initial residual = 0.02580241942209606, Final residual = 0.009151041797153904, No Iterations 2
time step continuity errors : sum local = 4.733891600421506e-11, global = -2.958507876990307e-11, cumulative = -3.602626269026183e-10
DICPBiCGStab:  Solving for p, Initial residual = 0.01621144927525812, Final residual = 0.008024275576789528, No Iterations 1
DICPBiCGStab:  Solving for p, Initial residual = 0.008956291628045813, Final residual = 0.00495964974772601, No Iterations 8
time step continuity errors : sum local = 2.533480732499812e-11, global = -1.970538807165067e-11, cumulative = -3.79968014974269e-10
DILUPBiCGStab:  Solving for omega, Initial residual = 6.979127371260072e-07, Final residual = 7.503773060797721e-14, No Iterations 1
DILUPBiCGStab:  Solving for k, Initial residual = 0.001599536601512344, Final residual = 2.652563014494256e-12, No Iterations 1
PIMPLE: converged in 2 iterations
ExecutionTime = 0.9 s  ClockTime = 3 s

---[precice] [0m Time window completed
---[precice] [0m iteration: 1, time-window: 18, time: 0.17 of 10, time-window-size: 0.01, max-timestep-length: 0.01, ongoing: yes, time-window-complete: yes, 
Courant Number mean: 7.632900337459986e-05 max: 0.1092357569226216
Time = 0.18

PIMPLE: iteration 1
DICPCG:  Solving for cellDisplacementx, Initial residual = 0.0401860169498147, Final residual = 7.521461267536901e-07, No Iterations 75
DICPCG:  Solving for cellDisplacementy, Initial residual = 0.07997286251826935, Final residual = 8.076998866157003e-07, No Iterations 77
DICPCG:  Solving for pcorr, Initial residual = 0.9999999999999979, Final residual = 0.5965239635000152, No Iterations 1
DICPCG:  Solving for pcorr, Initial residual = 0.339673174625141, Final residual = 0.2490180250757451, No Iterations 1
time step continuity errors : sum local = 4.220026647491194e-11, global = -1.952615645528501e-11, cumulative = -3.99494171429554e-10
DILUPBiCGStab:  Solving for Ux, Initial residual = 5.849217616845802e-06, Final residual = 1.978376372993364e-12, No Iterations 1
DILUPBiCGStab:  Solving for Uy, Initial residual = 1.31703827079074e-05, Final residual = 3.640090740086757e-12, No Iterations 1
DICPBiCGStab:  Solving for p, Initial residual = 0.4300511914555284, Final residual = 0.009352100549020633, No Iterations 3
DICPBiCGStab:  Solving for p, Initial residual = 0.01340360482363633, Final residual = 0.006235872891404332, No Iterations 1
time step continuity errors : sum local = 4.70043503650257e-11, global = -2.022657212100168e-11, cumulative = -4.197207435505557e-10
DICPBiCGStab:  Solving for p, Initial residual = 0.0677637485004812, Final residual = 0.006916303489179681, No Iterations 1
DICPBiCGStab:  Solving for p, Initial residual = 0.007377629468507929, Final residual = 0.004281420665032856, No Iterations 3
time step continuity errors : sum local = 3.230283520684642e-11, global = -2.02071478981641e-11, cumulative = -4.399278914487198e-10
DILUPBiCGStab:  Solving for omega, Initial residual = 6.904368175505026e-07, Final residual = 3.912575941437452e-15, No Iterations 1
DILUPBiCGStab:  Solving for k, Initial residual = 0.001572935478970998, Final residual = 1.326923886526907e-13, No Iterations 1
PIMPLE: iteration 2
DILUPBiCGStab:  Solving for Ux, Initial residual = 2.200339807122633e-06, Final residual = 9.088636690774795e-12, No Iterations 1
DILUPBiCGStab:  Solving for Uy, Initial residual = 4.774728113611078e-06, Final residual = 1.783766421952321e-11, No Iterations 1
DICPBiCGStab:  Solving for p, Initial residual = 0.3894304688174717, Final residual = 0.009955120392461393, No Iterations 2
[...]
DICPBiCGStab:  Solving for p, Initial residual = 4.396470066384373e-05, Final residual = 2.636457575517045e-05, No Iterations 1
time step continuity errors : sum local = 9.858597228916456e+70, global = 2.848473022326205e+70, cumulative = 3.963739473519035e+71
DICPBiCGStab:  Solving for p, Initial residual = 5.476172812656308e-05, Final residual = 2.679500781252364e-05, No Iterations 1
DICPBiCGStab:  Solving for p, Initial residual = 2.484296075759031e-05, Final residual = 1.803888249821274e-05, No Iterations 1
time step continuity errors : sum local = 7.17159233343076e+70, global = 3.017688889390798e+70, cumulative = 4.265508362458115e+71
DILUPBiCGStab:  Solving for omega, Initial residual = 0.03384434047757548, Final residual = 2.854036687088636e-07, No Iterations 3
DILUPBiCGStab:  Solving for k, Initial residual = 0.03081691628842809, Final residual = 4.543375237498991e-07, No Iterations 3
PIMPLE: iteration 25
DILUPBiCGStab:  Solving for Ux, Initial residual = 0.192457156999864, Final residual = 4.258247158421072e-07, No Iterations 5
DILUPBiCGStab:  Solving for Uy, Initial residual = 0.1243983710044049, Final residual = 2.181083309553219e-07, No Iterations 5
DICPBiCGStab:  Solving for p, Initial residual = 0.0001149760078008098, Final residual = 5.094864973248585e-05, No Iterations 1
DICPBiCGStab:  Solving for p, Initial residual = 0.0006970844426942328, Final residual = 0.0003978777509650011, No Iterations 1
time step continuity errors : sum local = 1.219470534088345e+71, global = 3.567011654947562e+70, cumulative = 4.622209527952871e+71
DICPBiCGStab:  Solving for p, Initial residual = 0.0004779513945884781, Final residual = 0.000246868570691006, No Iterations 1
DICPBiCGStab:  Solving for p, Initial residual = 0.0009176383244100458, Final residual = 0.0006873536000907292, No Iterations 1
time step continuity errors : sum local = 8.350437080391984e+70, global = 3.454811654626095e+70, cumulative = 4.96769069341548e+71
DILUPBiCGStab:  Solving for omega, Initial residual = 0.03743251651006672, Final residual = 4.202322545991823e-07, No Iterations 3
DILUPBiCGStab:  Solving for k, Initial residual = 0.03426705571061105, Final residual = 6.044211241647256e-07, No Iterations 3
PIMPLE: iteration 26
DILUPBiCGStab:  Solving for Ux, Initial residual = 0.2161102321556812, Final residual = 8.084778903402814e-07, No Iterations 5
DILUPBiCGStab:  Solving for Uy, Initial residual = 0.1133088434819189, Final residual = 1.821714760677516e-07, No Iterations 5
DICPBiCGStab:  Solving for p, Initial residual = 0.0004259741136558962, Final residual = 0.000160366129678623, No Iterations 1
DICPBiCGStab:  Solving for p, Initial residual = 0.0003090769706969771, Final residual = 0.0001795040037208943, No Iterations 1
time step continuity errors : sum local = 1.114867388210221e+71, global = 3.16887269812102e+70, cumulative = 5.284577963227582e+71
DICPBiCGStab:  Solving for p, Initial residual = 0.01160417755784111, Final residual = 0.006152087711121951, No Iterations 1
DICPBiCGStab:  Solving for p, Initial residual = 0.0004346559891525973, Final residual = 0.0003219886910105324, No Iterations 1
time step continuity errors : sum local = 8.12405632868703e+70, global = 3.079723709559575e+70, cumulative = 5.592550334183539e+71
DILUPBiCGStab:  Solving for omega, Initial residual = 0.03610803847785692, Final residual = 5.86277061842086e-07, No Iterations 3
DILUPBiCGStab:  Solving for k, Initial residual = 0.03611536328560121, Final residual = 4.439055763550992e-07, No Iterations 3
PIMPLE: iteration 27
DILUPBiCGStab:  Solving for Ux, Initial residual = 0.1855628310007706, Final residual = 2.991410181421473e-07, No Iterations 5
DILUPBiCGStab:  Solving for Uy, Initial residual = 0.1010680199180464, Final residual = 4.715721383188406e-07, No Iterations 5
DICPBiCGStab:  Solving for p, Initial residual = 0.006620837320195679, Final residual = 0.002773276600332582, No Iterations 1
DICPBiCGStab:  Solving for p, Initial residual = 0.0007976395879912224, Final residual = 0.0005418859048791231, No Iterations 1
time step continuity errors : sum local = 1.199154471839075e+71, global = 2.80419760645013e+70, cumulative = 5.872970094828552e+71
DICPBiCGStab:  Solving for p, Initial residual = 0.001026295230356081, Final residual = 0.0005089269938571461, No Iterations 1
DICPBiCGStab:  Solving for p, Initial residual = 0.002098282530162933, Final residual = 0.001586915568141975, No Iterations 1
time step continuity errors : sum local = 8.312246100348751e+70, global = 2.98859373997036e+70, cumulative = 6.171829468825588e+71
DILUPBiCGStab:  Solving for omega, Initial residual = 0.03868783864268339, Final residual = 7.466890001801352e-07, No Iterations 3
DILUPBiCGStab:  Solving for k, Initial residual = 0.03731641246217814, Final residual = 8.201250122837576e-08, No Iterations 3
PIMPLE: iteration 28
DILUPBiCGStab:  Solving for Ux, Initial residual = 0.1691083481750241, Final residual = 4.57949601612043e-07, No Iterations 5
DILUPBiCGStab:  Solving for Uy, Initial residual = 0.09352561086210298, Final residual = 5.301564178364255e-07, No Iterations 5
DICPBiCGStab:  Solving for p, Initial residual = 0.008958150318912258, Final residual = 0.003426068155815953, No Iterations 1
DICPBiCGStab:  Solving for p, Initial residual = 0.002220946140649374, Final residual = 0.001583061517535117, No Iterations 1
time step continuity errors : sum local = 1.348556853915806e+71, global = 3.810177762581869e+70, cumulative = 6.552847245083775e+71
DICPBiCGStab:  Solving for p, Initial residual = 0.02975097957720633, Final residual = 0.009979450973711706, No Iterations 5
DICPBiCGStab:  Solving for p, Initial residual = 0.0003467271964514108, Final residual = 0.0001653790756282762, No Iterations 1
time step continuity errors : sum local = 6.517120224480919e+70, global = 4.624635308246948e+70, cumulative = 7.01531077590847e+71
DILUPBiCGStab:  Solving for omega, Initial residual = 0.04037612661418376, Final residual = 4.831171956533757e-07, No Iterations 3
DILUPBiCGStab:  Solving for k, Initial residual = 0.0378952413102424, Final residual = 9.204956887113747e-08, No Iterations 3
PIMPLE: iteration 29
DILUPBiCGStab:  Solving for Ux, Initial residual = 0.1747663072897058, Final residual = 6.791712548775068e-07, No Iterations 5
DILUPBiCGStab:  Solving for Uy, Initial residual = 0.1081252230204531, Final residual = 1.900544352585033e-07, No Iterations 5
DICPBiCGStab:  Solving for p, Initial residual = 0.001139266936094327, Final residual = 0.0005468972160819251, No Iterations 1
DICPBiCGStab:  Solving for p, Initial residual = 0.0006507259003412826, Final residual = 0.0004224921942805965, No Iterations 1
time step continuity errors : sum local = 2.054421103808026e+71, global = 6.163656450076565e+70, cumulative = 7.631676420916127e+71
DICPBiCGStab:  Solving for p, Initial residual = 0.0008547391686657947, Final residual = 0.0004243667366722078, No Iterations 1
DICPBiCGStab:  Solving for p, Initial residual = 0.0004409727903352264, Final residual = 0.0003277649606237591, No Iterations 1
time step continuity errors : sum local = 1.269499738148865e+71, global = 2.883970981181508e+70, cumulative = 7.920073519034277e+71
DILUPBiCGStab:  Solving for omega, Initial residual = 0.04162504848849759, Final residual = 3.871145147496609e-07, No Iterations 3
DILUPBiCGStab:  Solving for k, Initial residual = 0.040357411005504, Final residual = 9.084880318133867e-08, No Iterations 3
PIMPLE: iteration 30
DILUPBiCGStab:  Solving for Ux, Initial residual = 0.5529704226915992, Final residual = 0.02160205273767169, No Iterations 10
DILUPBiCGStab:  Solving for Uy, Initial residual = 0.5611286519218426, Final residual = 0.04181358289229928, No Iterations 10
DICPBiCGStab:  Solving for p, Initial residual = 0.01411319703612149, Final residual = 0.007759634542178278, No Iterations 1
DICPBiCGStab:  Solving for p, Initial residual = 0.03085325560679061, Final residual = 0.008963092899694962, No Iterations 5
time step continuity errors : sum local = 7.154757981983748e+71, global = -4.461130737323623e+71, cumulative = 3.458942781710654e+71
DICPBiCGStab:  Solving for p, Initial residual = 0.006893238855071037, Final residual = 0.002440982613327676, No Iterations 1
DICPBiCGStab:  Solving for p, Initial residual = 0.003603857499657979, Final residual = 0.002171129319345489, No Iterations 1
time step continuity errors : sum local = 1.815609148619068e+72, global = -1.289621389460173e+71, cumulative = 2.169321392250481e+71
DILUPBiCGStab:  Solving for omega, Initial residual = 0.3489829944582528, Final residual = 0.0003601373254072231, No Iterations 10
DILUPBiCGStab:  Solving for k, Initial residual = 0.6239997113968326, Final residual = 3.60197825777779e-05, No Iterations 10
bounding k, min: -0.0004398319136607867 max: 0.003471371676724215 average: 0.000394651641580174
PIMPLE: not converged within 30 iterations
ExecutionTime = 11.09 s  ClockTime = 13 s

---[precice] [0m Time window completed
---[precice] [0m iteration: 1, time-window: 127, time: 1.26 of 10, time-window-size: 0.01, max-timestep-length: 0.01, ongoing: yes, time-window-complete: yes, 
Courant Number mean: 3.05361287546298e+73 max: 8.582267023994079e+78
Time = 1.27

PIMPLE: iteration 1
DICPCG:  Solving for cellDisplacementx, Initial residual = 0.0101395891752361, Final residual = 7.614501580432236e-07, No Iterations 67
DICPCG:  Solving for cellDisplacementy, Initial residual = 0.02019134084168816, Final residual = 7.972148887863199e-07, No Iterations 69
DICPCG:  Solving for pcorr, Initial residual = 1, Final residual = 0.9719480860746555, No Iterations 1
DICPCG:  Solving for pcorr, Initial residual = 0.4726109884923726, Final residual = 0.2101056439802838, No Iterations 3
time step continuity errors : sum local = 8.365880678736588e+71, global = -8.192775649379178e+70, cumulative = 1.350043827312563e+71
DILUPBiCGStab:  Solving for Ux, Initial residual = 0.420488607716954, Final residual = 2.060407582150811e-07, No Iterations 4
DILUPBiCGStab:  Solving for Uy, Initial residual = 0.4773214142838622, Final residual = 5.189650550394635e-07, No Iterations 4
DICPBiCGStab:  Solving for p, Initial residual = 0.0204024982548595, Final residual = 0.00931155208634671, No Iterations 1
DICPBiCGStab:  Solving for p, Initial residual = 0.0006158759205217351, Final residual = 0.000379223530147036, No Iterations 1
time step continuity errors : sum local = 1.522689824044554e+72, global = 2.64596681558176e+71, cumulative = 3.996010642894323e+71
DICPBiCGStab:  Solving for p, Initial residual = 0.0006725343675469017, Final residual = 0.0002967202264296871, No Iterations 1
DICPBiCGStab:  Solving for p, Initial residual = 0.0002779261360230605, Final residual = 0.0002142625221892484, No Iterations 1
time step continuity errors : sum local = 9.072954193423304e+71, global = 2.224855548813771e+71, cumulative = 6.220866191708093e+71
DILUPBiCGStab:  Solving for omega, Initial residual = 0.03611891335837216, Final residual = 6.073346553011859e-07, No Iterations 3
DILUPBiCGStab:  Solving for k, Initial residual = 0.05040694324781362, Final residual = 1.396516860425768e-07, No Iterations 3
PIMPLE: iteration 2
DILUPBiCGStab:  Solving for Ux, Initial residual = 0.3142631504867773, Final residual = 6.484669086557684e-07, No Iterations 4
DILUPBiCGStab:  Solving for Uy, Initial residual = 0.2682579139124912, Final residual = 7.919145973314748e-07, No Iterations 4
DICPBiCGStab:  Solving for p, Initial residual = 0.00227304923326265, Final residual = 0.0009884134462241918, No Iterations 1
DICPBiCGStab:  Solving for p, Initial residual = 0.01420000269488839, Final residual = 0.0095748271066567, No Iterations 1
time step continuity errors : sum local = 1.531193906162018e+72, global = 6.41060895452637e+71, cumulative = 1.263147514623446e+72
DICPBiCGStab:  Solving for p, Initial residual = 0.01345587540994813, Final residual = 0.005660211188789319, No Iterations 1
DICPBiCGStab:  Solving for p, Initial residual = 0.04533447377095885, Final residual = 0.004952699917654221, No Iterations 10
time step continuity errors : sum local = 1.434912510565806e+71, global = 1.202615296900374e+71, cumulative = 1.383409044313484e+72
DILUPBiCGStab:  Solving for omega, Initial residual = 0.02562493603711088, Final residual = 2.401536327728816e-08, No Iterations 4
DILUPBiCGStab:  Solving for k, Initial residual = 0.04970918234823183, Final residual = 8.081237742309972e-07, No Iterations 3
PIMPLE: iteration 3
DILUPBiCGStab:  Solving for Ux, Initial residual = 0.3621628430243364, Final residual = 9.087724955197503e-07, No Iterations 6
DILUPBiCGStab:  Solving for Uy, Initial residual = 0.3294315844049525, Final residual = 7.27753327470368e-07, No Iterations 5
DICPBiCGStab:  Solving for p, Initial residual = 0.0141092623642055, Final residual = 0.005746031591375639, No Iterations 1
DICPBiCGStab:  Solving for p, Initial residual = 0.004531738265507707, Final residual = 0.003097829544325385, No Iterations 1
time step continuity errors : sum local = 2.026042693983935e+72, global = -3.607176125774649e+71, cumulative = 1.022691431736019e+72
DICPBiCGStab:  Solving for p, Initial residual = 0.005393648820663554, Final residual = 0.002865120952009934, No Iterations 1
DICPBiCGStab:  Solving for p, Initial residual = 0.002609691645227545, Final residual = 0.00229428804621721, No Iterations 1
time step continuity errors : sum local = 1.462060772965975e+72, global = -4.18541313691819e+71, cumulative = 6.041501180441996e+71
DILUPBiCGStab:  Solving for omega, Initial residual = 0.03079392552247608, Final residual = 8.281309227574543e-07, No Iterations 3
DILUPBiCGStab:  Solving for k, Initial residual = 0.06088321037980822, Final residual = 6.458039074867678e-07, No Iterations 3
PIMPLE: iteration 4
DILUPBiCGStab:  Solving for Ux, Initial residual = 0.1708079774974323, Final residual = 2.51437964159267e-07, No Iterations 5
DILUPBiCGStab:  Solving for Uy, Initial residual = 0.1523133194440561, Final residual = 8.290087345947577e-07, No Iterations 5
DICPBiCGStab:  Solving for p, Initial residual = 0.008694009040561928, Final residual = 0.003861280269418765, No Iterations 1
DICPBiCGStab:  Solving for p, Initial residual = 0.004131387822703193, Final residual = 0.003491414003196533, No Iterations 1
time step continuity errors : sum local = 1.604673599179247e+72, global = -6.857467110638216e+71, cumulative = -8.159659301962192e+70
DICPBiCGStab:  Solving for p, Initial residual = 0.005659759238198463, Final residual = 0.003047284314520631, No Iterations 1
DICPBiCGStab:  Solving for p, Initial residual = 0.003122067215136795, Final residual = 0.003211998250770068, No Iterations 1
time step continuity errors : sum local = 1.385298979122946e+72, global = -5.597724206994143e+71, cumulative = -6.413690137190363e+71
DILUPBiCGStab:  Solving for omega, Initial residual = 0.02660467814718163, Final residual = 1.901858115655655e-07, No Iterations 3
DILUPBiCGStab:  Solving for k, Initial residual = 0.05497781381465616, Final residual = 4.739536837082929e-07, No Iterations 3
PIMPLE: iteration 5
DILUPBiCGStab:  Solving for Ux, Initial residual = 0.2424647910216666, Final residual = 9.608233074707256e-07, No Iterations 5
DILUPBiCGStab:  Solving for Uy, Initial residual = 0.2256348115595382, Final residual = 6.175496532028427e-07, No Iterations 6
DICPBiCGStab:  Solving for p, Initial residual = 0.01162939614058273, Final residual = 0.00466643793155096, No Iterations 1
DICPBiCGStab:  Solving for p, Initial residual = 0.005686112883331136, Final residual = 0.003783213491851875, No Iterations 1
time step continuity errors : sum local = 1.310541916990738e+72, global = -5.168648518129834e+71, cumulative = -1.15823386553202e+72
DICPBiCGStab:  Solving for p, Initial residual = 0.007679167864372092, Final residual = 0.003513988847676708, No Iterations 1
DICPBiCGStab:  Solving for p, Initial residual = 0.004607985469106332, Final residual = 0.003710380374087099, No Iterations 1
time step continuity errors : sum local = 7.582183154870548e+71, global = -3.79549244275727e+71, cumulative = -1.537783109807747e+72
DILUPBiCGStab:  Solving for omega, Initial residual = 0.02879153949550255, Final residual = 8.284918382474438e-07, No Iterations 2
DILUPBiCGStab:  Solving for k, Initial residual = 0.04819679612401375, Final residual = 2.716302512852011e-07, No Iterations 3
PIMPLE: iteration 6
DILUPBiCGStab:  Solving for Ux, Initial residual = 0.295111508341584, Final residual = 4.745176731283447e-07, No Iterations 5
DILUPBiCGStab:  Solving for Uy, Initial residual = 0.2298383299292493, Final residual = 7.804431372599094e-07, No Iterations 5
DICPBiCGStab:  Solving for p, Initial residual = 0.02066970802412943, Final residual = 0.008999650429922399, No Iterations 1
DICPBiCGStab:  Solving for p, Initial residual = 0.01148445737737504, Final residual = 0.0083912943654999, No Iterations 1
time step continuity errors : sum local = 1.156074098003483e+72, global = -1.479926528716957e+70, cumulative = -1.552582375094916e+72
DICPBiCGStab:  Solving for p, Initial residual = 0.01505519999803151, Final residual = 0.008238085131034341, No Iterations 1
DICPBiCGStab:  Solving for p, Initial residual = 0.01100264717684635, Final residual = 0.004477204492716466, No Iterations 5
time step continuity errors : sum local = 3.734969107946664e+71, global = -2.153002787455344e+71, cumulative = -1.767882653840451e+72
DILUPBiCGStab:  Solving for omega, Initial residual = 0.02355539628089482, Final residual = 7.276762867479861e-07, No Iterations 3
DILUPBiCGStab:  Solving for k, Initial residual = 0.04066838224861468, Final residual = 8.527865490787673e-07, No Iterations 3
PIMPLE: iteration 7
DILUPBiCGStab:  Solving for Ux, Initial residual = 0.327707982224567, Final residual = 2.106065418799523e-07, No Iterations 6
DILUPBiCGStab:  Solving for Uy, Initial residual = 0.27835617911703, Final residual = 3.005866621435252e-07, No Iterations 5
DICPBiCGStab:  Solving for p, Initial residual = 0.00838980018292243, Final residual = 0.004836839285447602, No Iterations 1
DICPBiCGStab:  Solving for p, Initial residual = 0.004700415964073934, Final residual = 0.003536060678869646, No Iterations 1
time step continuity errors : sum local = 1.61667524046008e+72, global = -2.625023841970947e+71, cumulative = -2.030385038037545e+72
DICPBiCGStab:  Solving for p, Initial residual = 0.003669582883353619, Final residual = 0.002139134336228272, No Iterations 1
DICPBiCGStab:  Solving for p, Initial residual = 0.002297843938437844, Final residual = 0.00251362565143786, No Iterations 1
time step continuity errors : sum local = 1.130583783390974e+72, global = -2.114879139554989e+71, cumulative = -2.241872951993044e+72
DILUPBiCGStab:  Solving for omega, Initial residual = 0.04246214510994106, Final residual = 9.288303938881463e-08, No Iterations 3
DILUPBiCGStab:  Solving for k, Initial residual = 0.05995988877014766, Final residual = 7.443236184243056e-07, No Iterations 3
PIMPLE: iteration 8
#0  Foam::error::printStack(Foam::Ostream&) at ??:?
#1  Foam::sigFpe::sigHandler(int) at ??:?
#2  ? in /lib/x86_64-linux-gnu/libpthread.so.0
#3  Foam::scalarProduct<double, double>::type Foam::sumProd<double>(Foam::UList<double> const&, Foam::UList<double> const&) at ??:?
#4  Foam::PBiCGStab::scalarSolve(Foam::Field<double>&, Foam::Field<double> const&, unsigned char) const at ??:?
#5  Foam::PBiCGStab::solve(Foam::Field<double>&, Foam::Field<double> const&, unsigned char) const at ??:?
#6  Foam::fvMatrix<Foam::Vector<double> >::solveSegregated(Foam::dictionary const&) at ??:?
#7  Foam::fvMatrix<Foam::Vector<double> >::solveSegregatedOrCoupled(Foam::dictionary const&) at ??:?
#8  Foam::fvMesh::solve(Foam::fvMatrix<Foam::Vector<double> >&, Foam::dictionary const&) const at ??:?
#9  ? in /usr/lib/openfoam/openfoam2012/platforms/linux64GccDPInt32Opt/bin/pimpleFoam
#10  __libc_start_main in /lib/x86_64-linux-gnu/libc.so.6
#11  ? in /usr/lib/openfoam/openfoam2012/platforms/linux64GccDPInt32Opt/bin/pimpleFoam
